6
i = 0; t = 0.0; V = -78.028779232659; K = 0.0; qed-freq = 0.5; qed-pol = [0.9901475429766743, 0.09901475429766743, 0.09901475429766743]; qed-coup = 0.05; basis = aug-cc-pvdz; Δt = 10.0
C    0.0 0.0 0.0 0.0 0.0 0.0 1.010997001176223e-6 6.818500446758227e-10 1.3865018868329486e-8
C    1.34 0.0 0.0 0.0 0.0 0.0 -1.0109970011795561e-6 -6.818500446078023e-10 -1.3865018868179839e-8
H    1.885 0.944 0.0 0.0 0.0 0.0 -7.626217651311295e-8 -4.712190931052776e-6 1.1387992541746638e-8
H    1.885 -0.944 0.0 0.0 0.0 0.0 1.2814723846591106e-8 4.604716129408469e-6 1.430509717348359e-8
H    -0.545 0.944 0.0 0.0 0.0 0.0 -1.2814723840863505e-8 -4.604716129408144e-6 -1.4305097174023929e-8
H    -0.545 -0.944 0.0 0.0 0.0 0.0 7.626217648960819e-8 4.712190931050075e-6 -1.1387992542989419e-8
6
i = 1; t = 10.0; V = -78.028789490184; K = 1.0226099631790658e-5; qed-freq = 0.5; qed-pol = [0.9901475429766743, 0.09901475429766743, 0.09901475429766743]; qed-coup = 0.05; basis = aug-cc-pvdz; Δt = 10.0
C    2.674982866654589e-5 1.8040975245361464e-8 3.668526007047887e-7 5.3480446143736835e-6 3.834255650364951e-9 7.334475473348971e-8 1.010270923452272e-6 7.672885695102656e-10 1.3855280955610951e-8
C    1.3399732501713333 -1.804097524356172e-8 -3.6685260070082917e-7 -5.348044614368288e-6 -3.83425564474256e-9 -7.334475473328403e-8 -1.010270923438482e-6 -7.672885673834933e-10 -1.3855280955678972e-8
H    1.884997982189707 0.9438753207972891 3.013133065609624e-7 -3.707349940194642e-7 -2.484020049905959e-5 6.018915644312451e-8 -6.385534418048855e-8 -4.676044233448588e-6 1.1360211727476483e-8
H    1.8850003390629915 -0.9438781644580779 3.7849657121018107e-7 9.856096617169476e-8 2.4274528722104382e-5 7.56187262088675e-8 2.4435922685023082e-8 4.569726088124687e-6 1.427463931116428e-8
H    -0.5450003390629911 0.943878164458078 -3.784965712244779e-7 -9.856096612820381e-8 -2.4274528722120154e-5 -7.561872621030745e-8 -2.443592266589506e-8 -4.5697260881309e-6 -1.427463931116428e-8
H    -0.5449979821897074 -0.9438753207972891 -3.0131330659384497e-7 3.707349939116955e-7 2.4840200499008363e-5 -6.018915644413555e-8 6.385534417168101e-8 4.676044233431999e-6 -1.136021172661194e-8
6
i = 2; t = 20.0; V = -78.02881976191; K = 4.0405509789677056e-5; qed-freq = 0.5; qed-pol = [0.9901475429766743, 0.09901475429766743, 0.09901475429766743]; qed-coup = 0.05; basis = aug-cc-pvdz; Δt = 10.0
C    0.00010696089228758503 7.668511300822292e-8 1.4668950946698456e-6 1.0688288399115556e-5 8.568583368205407e-9 1.4658653131949705e-7 1.0080487148668006e-6 1.0220279845916479e-9 1.3826098769220083e-8
C    1.3398930391077128 -7.668511289392731e-8 -1.4668950946656286e-6 -1.0688288399110003e-5 -8.568583358301051e-9 -1.4658653132023577e-7 -1.008048714871553e-6 -1.0220279851584848e-9 -1.3826098769501231e-8
H    1.88499258530012 0.9435031959900188 1.2037831288625415e-6 -6.108896344522257e-7 -4.92994034705869e-5 1.2008425955852963e-7 -2.690995540728637e-8 -4.5681947348183485e-6 1.1276856490667255e-8
H    1.8850019712193238 -0.9435145094255577 1.5123745241774013e-6 3.194182701366982e-7 4.81802494290017e-5 1.5091529252745014e-7 5.90360407402004e-8 4.465326901151247e-6 1.4183338381293875e-8
H    -0.5450019712193225 0.9435145094255575 -1.5123745242060978e-6 -3.19418270070496e-7 -4.818024942902603e-5 -1.5091529252476462e-7 -5.9036040741767385e-8 -4.465326901148329e-6 -1.418333837972689e-8
H    -0.5449925853001216 -0.9435031959900197 -1.2037831288826598e-6 6.108896343198459e-7 4.929940347049321e-5 -1.2008425955241283e-7 2.6909955415769702e-8 4.568194734818834e-6 -1.12768564888301e-8
6
i = 3; t = 30.0; V = -78.028868576703; K = 8.907285117519518e-5; qed-freq = 0.5; qed-pol = [0.9901475429766743, 0.09901475429766743, 0.09901475429766743]; qed-coup = 0.05; basis = aug-cc-pvdz; Δt = 10.0
C    0.0002405155966489758 1.8941264260869683e-7 3.2985832270948324e-6 1.6012465703204697e-5 1.5086301782754813e-8 2.1962264002663328e-7 1.0041986737996116e-6 1.4413125674467974e-9 1.3777549762871689e-8
C    1.3397594844033514 -1.8941264241035554e-7 -3.298583227105442e-6 -1.6012465703206133e-5 -1.508630178189668e-8 -2.1962264002828216e-7 -1.004198673806128e-6 -1.441312570435162e-9 -1.377754976293064e-8
H    1.884985764397018 0.9428893327278774 2.7029984977316575e-6 -5.927942280051545e-7 -7.300285636204973e-5 1.793913781173586e-7 3.3749027862503023e-8 -4.390412099460633e-6 1.1137985771993981e-8
H    1.8850067274283941 -0.9429145594694979 3.3968024217592867e-6 7.820811681740774e-7 7.135439022278457e-5 2.2556849331568265e-7 1.1582519231312894e-7 4.293228953320765e-6 1.403148238109287e-8
H    -0.5450067274283925 0.9429145594694974 -3.396802421719667e-6 -7.820811680883344e-7 -7.135439022274018e-5 -2.2556849330600197e-7 -1.1582519231280474e-7 -4.293228953297855e-6 -1.403148238001219e-8
H    -0.5449857643970208 -0.9428893327278792 -2.702998497641999e-6 5.927942279364924e-7 7.300285636199515e-5 -1.793913781073919e-7 -3.3749027855532644e-8 4.390412099474789e-6 -1.113798577237222e-8
6
i = 4; t = 40.0; V = -78.028933585376; K = 0.00015388812104011101; qed-freq = 0.5; qed-pol = [0.9901475429766743, 0.09901475429766743, 0.09901475429766743]; qed-coup = 0.05; basis = aug-cc-pvdz; Δt = 10.0
C    0.00042721020635156477 3.78411148661517e-7 5.859347895202563e-6 2.1311384004459595e-5 2.423696404194707e-8 2.923509484376871e-7 9.985021953531885e-7 2.0171365381796896e-9 1.370976711708893e-8
C    1.3395727897936487 -3.784111485336631e-7 -5.85934789523122e-6 -2.131138400446702e-5 -2.423696405548828e-8 -2.923509484398502e-7 -9.98502195370257e-7 -2.017136540687376e-9 -1.3709767117220435e-8
H    1.8849807294155598 0.9420431388627778 4.791610691209765e-6 -1.9459575587088824e-7 -9.558827196930643e-5 2.378168613015799e-7 1.1674818323763918e-7 -4.145637881977891e-6 1.0943646610719903e-8
H    1.885017612842687 -0.9420874216211022 6.023744390491105e-6 1.6004913056249755e-6 9.344622388477998e-5 2.9925902504681054e-7 1.9348901114617915e-7 4.056274088802921e-6 1.3819502207989675e-8
H    -0.5450176128426845 0.9420874216211027 -6.023744390326086e-6 -1.6004913055111247e-6 -9.344622388459435e-5 -2.9925902502956283e-7 -1.9348901115720207e-7 -4.0562740887725e-6 -1.3819502206206555e-8
H    -0.5449807294155631 -0.9420431388627798 -4.7916106910304465e-6 1.9459575584548848e-7 9.558827196928216e-5 -2.3781686129305317e-7 -1.1674818324958069e-7 4.145637881975135e-6 -1.0943646610882008e-8
6
i = 5; t = 50.0; V = -78.029011707817; K = 0.00023178323542168632; qed-freq = 0.5; qed-pol = [0.9901475429766743, 0.09901475429766743, 0.09901475429766743]; qed-coup = 0.05; basis = aug-cc-pvdz; Δt = 10.0
C    0.0006667432767378857 6.741519234469253e-7 9.145602195848627e-6 2.6574468151275765e-5 3.6818887966067454e-8 3.646701638568556e-7 9.90655326241305e-7 2.738141529020511e-9 1.3622935020045168e-8
C    1.3393332567232619 -6.741519235208341e-7 -9.145602195902395e-6 -2.6574468151283232e-5 -3.681888798735119e-8 -3.646701638600951e-7 -9.906553262443568e-7 -2.7381415297188543e-9 -1.3622935020312715e-8
H    1.8849818724819005 0.9409775672884912 7.459335723763308e-6 6.968493728736535e-7 -0.00011671199210868531 2.9506724953490584e-7 2.201692464332724e-7 -3.8379712770993276e-6 1.069386424648563e-8
H    1.8850387372545063 -0.9410456349918023 9.381982922695548e-6 2.8802589272926448e-6 0.00011412301450664105 3.716701796519952e-7 2.901930504513456e-7 3.758420193255481e-6 1.3547947905481636e-8
H    -0.545038737254503 0.9410456349918056 -9.381982922310873e-6 -2.880258927143607e-6 -0.00011412301450633714 -3.716701796243314e-7 -2.90193050447131e-7 -3.7584201932414863e-6 -1.3547947903320278e-8
H    -0.5449818724819042 -0.9409775672884936 -7.459335723503011e-6 -6.968493729337774e-7 0.00011671199210863503 -2.950672495239692e-7 -2.2016924645456175e-7 3.837971277091979e-6 -1.0693864245404952e-8
6
i = 6; t = 60.0; V = -78.029099325432; K = 0.00031915366561844846; qed-freq = 0.5; qed-pol = [0.9901475429766743, 0.09901475429766743, 0.09901475429766743]; qed-coup = 0.05; basis = aug-cc-pvdz; Δt = 10.0
C    0.0009586995693768141 1.1147889079791646e-6 1.3152751172339778e-5 3.178931574397522e-5 5.356112370859315e-8 4.3648005859028064e-7 9.80271420068337e-7 3.5895065243615647e-9 1.3517271795960821e-8
C    1.3390413004306227 -1.1147889082843885e-6 -1.315275117243302e-5 -3.178931574398535e-5 -5.3561123727762835e-8 -4.3648005859458616e-7 -9.80271420066759e-7 -3.589506522611172e-9 -1.3517271796092326e-8
H    1.8849946664030173 0.9397088990206041 1.0692955681907985e-5 2.1831124995392665e-6 -0.00013605504823433476 3.508492862687791e-7 3.4155680525404604e-7 -3.4726444208141513e-6 1.038869017300593e-8
H    1.8850752180212327 -0.9398049613309692 1.3457147983531111e-5 4.7159333941860565e-6 0.00013307585471128525 4.424885297261967e-7 4.035913488055253e-7 3.40471526062929e-6 1.321750934128281e-8
H    -0.5450752180212277 0.9398049613309759 -1.3457147982812612e-5 -4.715933394008332e-6 -0.00013307585471097948 -4.4248852969311033e-7 -4.0359134879936537e-7 -3.4047152606423124e-6 -1.3217509341390876e-8
H    -0.5449946664030221 -0.9397088990206072 -1.0692955681509729e-5 -2.1831124995962956e-6 0.00013605504823425738 -3.5084928625056124e-7 -3.4155680523205426e-7 3.472644420811503e-6 -1.0388690171330878e-8
6
i = 7; t = 70.0; V = -78.029192505988; K = 0.000412082330321354; qed-freq = 0.5; qed-pol = [0.9901475429766743, 0.09901475429766743, 0.09901475429766743]; qed-coup = 0.05; basis = aug-cc-pvdz; Δt = 10.0
C    0.0013025295916173837 1.7453743976221358e-6 1.787520336765429e-5 3.694127056662384e-5 7.510491400417875e-8 5.076816895870318e-7 9.668853041186283e-7 4.552866144550865e-9 1.3393044645281584e-8
C    1.3386974704083823 -1.7453743980727431e-6 -1.7875203367794065e-5 -3.694127056663711e-5 -7.510491401099429e-8 -5.076816895913357e-7 -9.66885304122687e-7 -4.552866141294953e-9 -1.3393044645145545e-8
H    1.8850255347318912 0.9382564663238045 1.447632144913894e-5 4.3513877787339124e-6 -0.0001533290522779496 4.0486964670542125e-7 4.779324828138509e-7 -3.0559829225979745e-6 1.002804710210473e-8
H    1.8851330559223902 -0.9383841178975766 1.8231753517219533e-5 7.1883358841980215e-6 0.00015002532745810412 5.114042683585037e-7 5.308413663568899e-7 3.0012570288243074e-6 1.2828864996152782e-8
H    -0.5451330559223833 0.9383841178975859 -1.823175351617303e-5 -7.188335883989844e-6 -0.00015002532745787142 -5.114042683294307e-7 -5.308413663528374e-7 -3.0012570288385723e-6 -1.2828864997557663e-8
H    -0.5450255347318962 -0.9382564663238084 -1.4476321448514184e-5 -4.3513877787839365e-6 0.0001533290522777981 -4.048696466832106e-7 -4.779324828344918e-7 3.0559829225729565e-6 -1.0028047102266831e-8
6
i = 8; t = 80.0; V = -78.029287245383; K = 0.00050658027763522; qed-freq = 0.5; qed-pol = [0.9901475429766743, 0.09901475429766743, 0.09901475429766743]; qed-coup = 0.05; basis = aug-cc-pvdz; Δt = 10.0
C    0.001697524980709274 2.6168871880671994e-6 2.330638496408047e-5 4.201302339377795e-5 1.0198488424881227e-7 5.781776081990417e-7 9.499594588413191e-7 5.606290255133774e-9 1.3250551169987788e-8
C    1.33830247501929 -2.6168871884998147e-6 -2.3306384964259682e-5 -4.201302339378872e-5 -1.0198488424866157e-7 -5.781776082032101e-7 -9.499594588403531e-7 -5.606290255913742e-9 -1.3250551170064878e-8
H    1.8850816941585917 0.936642317975045 1.8790348616016464e-5 7.271787088756271e-6 -0.00016828182659963512 4.5683434715482067e-7 6.258184912463364e-7 -2.5953467314850477e-6 9.611763296784763e-9
H    1.8852189847389167 -0.9368044547818072 2.3685233350701234e-5 1.0361994928290895e-5 0.00016472690420335295 5.781111494768753e-7 6.686279148579879e-7 2.5551337007345916e-6 1.2382682191379639e-8
H    -0.5452189847389076 0.9368044547818185 -2.368523334940118e-5 -1.036199492809605e-5 -0.00016472690420314215 -5.781111494508252e-7 -6.686279148711182e-7 -2.555133700728756e-6 -1.2382682191109468e-8
H    -0.5450816941585979 -0.936642317975051 -1.879034861517389e-5 -7.271787088822774e-6 0.00016828182659942253 -4.5683434713120105e-7 -6.258184912359619e-7 2.5953467314868307e-6 -9.611763296082321e-9
6
i = 9; t = 90.0; V = -78.02937970901; K = 0.0005988269329047261; qed-freq = 0.5; qed-pol = [0.9901475429766743, 0.09901475429766743, 0.09901475429766743]; qed-coup = 0.05; basis = aug-cc-pvdz; Δt = 10.0
C    0.0021427900594928892 3.7850720825963054e-6 2.943875553163523e-5 4.698425222700263e-5 1.346104061618836e-7 6.478720113794945e-7 9.288927406269835e-7 6.724369962134384e-9 1.3090115715228543e-8
C    1.3378572099405064 -3.7850720830480505e-6 -2.9438755531858168e-5 -4.698425222700964e-5 -1.346104061712505e-7 -6.478720113833851e-7 -9.288927406242308e-7 -6.724369965095539e-9 -1.309011571504262e-8
H    1.8851709704736663 0.9348908297918118 2.361300839223546e-5 1.099479241517786e-5 -0.00018070265546034126 5.064480838869132e-7 7.812735942015617e-7 -2.0990462258806453e-6 9.139511591202839e-9
H    1.885340295820956 -0.9350895798135096 2.9793976506757136e-5 1.4282739669583392e-5 0.00017697596715919537 6.423062133072832e-7 8.131988382174628e-7 2.0743411530848527e-6 1.1879535646310994e-8
H    -0.5453402958209453 0.9350895798135231 -2.9793976505189434e-5 -1.4282739669500418e-5 -0.0001769759671589529 -6.423062132825299e-7 -8.131988382443178e-7 -2.074341153078855e-6 -1.1879535647067469e-8
H    -0.5451709704736728 -0.9348908297918199 -2.36130083911381e-5 -1.0994792415177382e-5 0.00018070265546021042 -5.064480838653052e-7 -7.812735941843249e-7 2.0990462259096075e-6 -9.139511592661756e-9
6
i = 10; t = 100.0; V = -78.029466454797; K = 0.000685392045074898; qed-freq = 0.5; qed-pol = [0.9901475429766743, 0.09901475429766743, 0.09901475429766743]; qed-coup = 0.05; basis = aug-cc-pvdz; Δt = 10.0
C    0.002637210025249357 5.309095311302966e-6 3.626382519167041e-5 5.18313167722947e-5 1.732478021317797e-7 7.166708654691221e-7 9.030321591166385e-7 7.878449347647736e-9 1.2912082667431398e-8
C    1.33736278997475 -5.30909531192673e-6 -3.626382519192734e-5 -5.183131677229092e-5 -1.7324780214737363e-7 -7.166708654726067e-7 -9.03032159104667e-7 -7.878449347266821e-9 -1.2912082667467675e-8
H    1.8853015900068955 0.9330282648658382 2.8919310293754777e-5 1.5548939266703614e-5 -0.0001904270145524367 5.534132970351092e-7 9.399444618905509e-7 -1.5762288583163665e-6 8.61076645517775e-9
H    1.8855046395323085 -0.9332649354386233 3.653135761684695e-5 1.897552014792655e-5 0.00018661232012438222 7.036891144552416e-7 9.604151351426604e-7 1.5676724356837567e-6 1.131983873386546e-8
H    -0.5455046395322976 0.9332649354386394 -3.653135761505173e-5 -1.897552014796926e-5 -0.00018661232012412657 -7.036891144321938e-7 -9.604151351526566e-7 -1.5676724356849993e-6 -1.1319838733757391e-8
H    -0.5453015900069014 -0.9330282648658469 -2.891931029247994e-5 -1.5548939266706006e-5 0.00019042701455236676 -5.534132970166363e-7 -9.399444618982237e-7 1.5762288583102069e-6 -8.610766454907579e-9
