6
i = 0; t = 0.0; V = -73.989694487861; K = 0.0; qed-freq = 0.5; qed-pol = [1, 0, 0]; qed-coup = 0.05; basis = aug-cc-pvdz; Δt = 10.0
C    0.0 0.0 0.0 0.0 0.0 0.0 -0.00016696202106621994 4.949361959235262e-15 2.2673478868045615e-20
C    0.7090974626328 0.0 0.0 0.0 0.0 0.0 0.0001669620210666174 -3.1565881239219895e-15 9.069391547218246e-21
H    0.9974990425842001 0.49954328710848 0.0 0.0 0.0 0.0 0.0005711567703013141 0.000871436707498688 -2.1613583705086972e-19
H    0.9974990425842001 -0.49954328710848 0.0 0.0 0.0 0.0 0.0005711567703077956 -0.0008714367075171922 -2.1613583705086972e-19
H    -0.28840157995140003 0.49954328710848 0.0 0.0 0.0 0.0 -0.0005711567703077556 0.0008714367075052674 1.6210187778815228e-19
H    -0.28840157995140003 -0.49954328710848 0.0 0.0 0.0 0.0 -0.0005711567703232417 -0.0008714367075106249 -1.0806791852543486e-19
6
i = 1; t = 10.0; V = -74.423885895698; K = 0.40856456647101125; qed-freq = 0.5; qed-pol = [1, 0, 0]; qed-coup = 0.05; basis = aug-cc-pvdz; Δt = 10.0
C    -0.004417624831869428 1.3095447787108314e-13 5.999144154622969e-19 -0.0008890732685535216 1.3337864384169568e-14 5.313008347446691e-20 -0.00016905897538091295 8.0722119466016e-17 -4.534695773609123e-21
C    0.7135150874646801 -8.35197249720117e-14 2.399657661849188e-19 0.0008890732685562964 -1.0409003858030282e-14 8.912494840220473e-20 0.000169058975382514 -7.8834325615462525e-16 2.2673478868045615e-20
H    1.0126111999195064 0.5226005094268532 -5.718707971521942e-18 0.0028062874939857752 0.004280820499201447 -1.138604664066905e-18 0.0004894661877841883 0.000746478958884226 -2.1613583705086972e-19
H    1.0126111999196779 -0.5226005094273428 -5.718707971521942e-18 0.0028062874939818374 -0.004280820499232713 -9.956369647788564e-19 0.0004894661877762188 -0.0007464789588775597 -1.6210187778815228e-19
H    -0.3035137372868767 0.5226005094270273 4.289030978641456e-18 -0.002806287493988666 0.00428082049921912 4.340400281016288e-19 -0.0004894661877778897 0.000746478958884326 0.0
H    -0.3035137372872865 -0.5226005094271691 -2.859353985760971e-18 -0.00280628749401201 -0.004280820499222755 5.1369302374831595e-21 -0.0004894661877712262 -0.000746478958880364 1.0806791852543486e-19
6
i = 2; t = 20.0; V = -75.375310800233; K = 1.3277988298783963; qed-freq = 0.5; qed-pol = [1, 0, 0]; qed-coup = 0.05; basis = aug-cc-pvdz; Δt = 10.0
C    -0.017781465371057865 2.664689370147077e-13 1.0112323671145066e-18 -0.0017713003031949608 1.1627155779557731e-14 -2.0584074215288318e-20 -0.00016437451964987089 -6.747309882426223e-16 -2.7208174641654736e-20
C    0.7268789280039386 -2.084684278292893e-13 1.7311296656692629e-18 0.0017713003031954622 -1.1817943513376274e-14 1.8338682704189263e-19 0.00016437451964964025 3.08386520780062e-16 9.069391547218246e-21
H    1.0536247924639282 0.5851596970925086 -2.2823462583712936e-17 0.0049621096150653686 0.007559079011245118 -1.8431693000321813e-18 0.00032531648864080065 0.0004925231917731692 -5.403395926271743e-20
H    1.0536247924638493 -0.5851596970931345 -1.9964108597951965e-17 0.004962109615044109 -0.0075590790112639574 -1.4142662021680359e-18 0.00032531648864222345 -0.000492523191775034 0.0
H    -0.3445273298311608 0.5851596970928621 8.629431259657744e-18 -0.004962109615055448 0.0075590790112755385 7.302492871526923e-19 -0.00032531648864002745 0.0004925231917778871 1.0806791852543486e-19
H    -0.3445273298316277 -0.5851596970929354 5.1369302374831456e-20 -0.004962109615060005 -0.007559079011254425 5.872815878646436e-19 -0.0003253164886395909 -0.0004925231917723903 1.0806791852543486e-19
6
i = 3; t = 30.0; V = -76.321938500814; K = 2.2653943840141677; qed-freq = 0.5; qed-pol = [1, 0, 0]; qed-coup = 0.05; basis = aug-cc-pvdz; Δt = 10.0
C    -0.03984363089573915 3.648878816863087e-13 8.54943264068671e-20 -0.0025836977898223376 9.673710478006406e-15 -7.543858552403481e-20 -0.0001426672311522574 -9.228559368871926e-17 4.534695773609123e-21
C    0.7489410935286187 -3.1848830701546627e-13 3.804963702273108e-18 0.0025836977898215964 -1.1103869366574497e-14 1.52528892351638e-19 0.00014266723115206173 -6.722686484375525e-17 -2.2673478868045615e-20
H    1.1118533922208433 0.673782089651757 -4.2684832576915235e-17 0.0063156463734022625 0.009577581995510656 -1.9810000690827467e-18 0.00018624626591688838 0.00027036037260262695 -0.0
H    1.1118533922205895 -0.6737820896526205 -3.410677061963232e-17 0.006315646373383484 -0.009577581995534205 -1.2661615726425041e-18 0.00018624626591640336 -0.0002703603726026001 5.403395926271743e-20
H    -0.40275592958795614 0.6737820896525394 1.8791278116945638e-17 -0.006315646373387178 0.009577581995557204 1.1642893152543211e-18 -0.00018624626591566624 0.00027036037260400514 5.403395926271743e-20
H    -0.4027559295884571 -0.673782089652256 8.783539166782238e-18 -0.006315646373389736 -0.009577581995516617 1.1642893152543211e-18 -0.00018624626591534722 -0.00027036037260219945 1.0806791852543486e-19
6
i = 4; t = 40.0; V = -77.037440168593; K = 2.9836104279936357; qed-freq = 0.5; qed-pol = [1, 0, 0]; qed-coup = 0.05; basis = aug-cc-pvdz; Δt = 10.0
C    -0.06945542116750404 4.591832148125581e-13 -5.489086457410217e-19 -0.00325306367153312 9.599986810452461e-15 -8.0575515761518e-20 -0.00011031640756002282 6.229765053784212e-17 -4.534695773609123e-21
C    0.778552883800371 -4.3130574692305693e-13 4.730338210327191e-18 0.003253063671531682 -1.1642706680436358e-14 9.939880887717107e-20 0.00011031640755995167 -1.3854855997107954e-16 4.534695773609123e-21
H    1.179937719931974 0.776711337002721 -6.249483326774269e-17 0.007065833311342467 0.010618447700672164 -1.8431693000321813e-18 9.728330506972448e-5 0.00012302985043887764 5.403395926271743e-20
H    1.1799377199315197 -0.7767113370038194 -4.5338709353176877e-17 0.007065833311321775 -0.010618447700694934 -1.2712985028799874e-18 9.728330506948626e-5 -0.00012302985043861423 -5.403395926271743e-20
H    -0.4708402572989038 0.7767113370040054 3.186384826236933e-17 -0.007065833311322844 0.010618447700721264 1.4450877835929348e-18 -9.728330506923506e-5 0.00012302985043846428 5.403395926271743e-20
H    -0.47084025729942186 -0.7767113370032684 2.328578630508642e-17 -0.007065833311324266 -0.010618447700674155 1.445087783592935e-18 -9.728330506912472e-5 -0.00012302985043780978 -0.0
6
i = 5; t = 50.0; V = -77.497616495523; K = 3.4496820062942355; qed-freq = 0.5; qed-pol = [1, 0, 0]; qed-coup = 0.05; basis = aug-cc-pvdz; Δt = 10.0
C    -0.10490490432640157 5.568314077650069e-13 -1.474646686448661e-18 -0.0037506044335947368 9.954631205857722e-15 -8.571244599900115e-20 -7.772674766074651e-5 7.176609531313797e-17 4.534695773609123e-21
C    0.8140023669592522 -5.513986507545445e-13 5.844309182191361e-18 0.003750604433593038 -1.2192421268052202e-14 1.0626016694893383e-19 7.772674766071952e-5 -6.918585341795438e-17 -0.0
H    1.2531700584476926 0.8861510436652001 -7.949684927518402e-17 0.007441908816933223 0.011036097340311263 -1.8483062302696644e-18 4.485263647504917e-5 3.481883654936029e-5 -5.403395926271743e-20
H    1.253170058447025 -0.8861510436665193 -5.948137137485724e-17 0.007441908816911696 -0.011036097340333832 -1.2764354331174707e-18 4.485263647497179e-5 -3.481883654954773e-5 5.403395926271743e-20
H    -0.544072595814413 0.8861510436669646 4.774440309117916e-17 -0.007441908816911661 0.011036097340358878 1.5829185526435002e-18 -4.485263647480499e-5 3.481883654921239e-5 0.0
H    -0.5440725958149424 -0.8861510436657394 3.773666414101577e-17 -0.0074419088169130196 -0.011036097340309641 1.2969831540674034e-18 -4.4852636474891444e-5 -3.4818836549061974e-5 -5.403395926271743e-20
6
i = 6; t = 60.0; V = -77.749066811176; K = 3.70698098804702; qed-freq = 0.5; qed-pol = [1, 0, 0]; qed-coup = 0.05; basis = aug-cc-pvdz; Δt = 10.0
C    -0.14446750983939877 6.582765689314054e-13 -2.211788263346213e-18 -0.004090118204489379 1.0278339215774327e-14 -9.084937623648433e-20 -5.0590860841090694e-5 5.008118012373915e-17 -4.534695773609123e-21
C    0.8535649724722317 -6.751534422824082e-13 6.906910851680699e-18 0.004090118204487579 -1.249414803283166e-14 1.2511981332994253e-19 5.05908608410859e-5 -4.534695773609123e-17 9.069391547218246e-21
H    1.3287758962706386 0.9974332838089462 -9.940958857076116e-17 0.007601452297117862 0.011090601035911963 -1.9964108597951963e-18 1.5446060026742055e-5 -1.4219425056963626e-5 -0.0
H    1.3287758962697536 -0.9974332838104961 -7.081604871315145e-17 0.007601452297095916 -0.011090601035935165 -1.1386046640669055e-18 1.5446060026661163e-5 1.4219425056911268e-5 -0.0
H    -0.619678433637137 0.997433283811183 6.357358861761417e-17 -0.007601452297095195 0.011090601035958818 1.5777816224060169e-18 -1.5446060026562392e-5 -1.4219425057103465e-5 -0.0
H    -0.6196784336376822 -0.9974332838094614 4.927681868880932e-17 -0.007601452297097137 -0.01109060103590921 1.1488785245418716e-18 -1.5446060026696288e-5 1.4219425057092497e-5 0.0
6
i = 7; t = 70.0; V = -77.852277999876; K = 3.814704795387172; qed-freq = 0.5; qed-pol = [1, 0, 0]; qed-coup = 0.05; basis = aug-cc-pvdz; Δt = 10.0
C    -0.18670726841618906 7.623850520500218e-13 -3.240264908803516e-18 -0.004304200139166471 1.0497956011971633e-14 -1.0798459478321342e-19 -3.032038411025582e-5 3.259085852492876e-17 0.0
C    0.8958047310490039 -8.012947514416494e-13 8.398074751165042e-18 0.00430420013916463 -1.2674254211656881e-14 1.3198117140170531e-19 3.032038411024492e-5 -2.3054393313028782e-17 -4.534695773609123e-21
H    1.40519910439005 1.1079630643834393 -1.1937369716871313e-16 0.007640980315143221 0.010947243375326687 -1.858580090744631e-18 -5.0663436378255e-7 -3.996191821594072e-5 5.403395926271743e-20
H    1.4051991043889434 -1.1079630643852225 -8.22020953538205e-17 0.007640980315120966 -0.010947243375350146 -1.1437415943043886e-18 -5.066343638182124e-7 3.9961918215897216e-5 0.0
H    -0.6961016417563168 1.107963064386141 7.935140484167434e-17 -0.0076409803151197995 0.010947243375372851 1.5726446921685336e-18 5.066343638877001e-7 -3.996191821606327e-5 0.0
H    -0.696101641756885 -1.1079630643839236 6.076560393422804e-17 -0.007640980315122446 -0.010947243375323466 1.1437415943043884e-18 5.066343637551007e-7 3.996191821599054e-5 -0.0
6
i = 8; t = 80.0; V = -77.858514398055; K = 3.8241327066758304; qed-freq = 0.5; qed-pol = [1, 0, 0]; qed-coup = 0.05; basis = aug-cc-pvdz; Δt = 10.0
C    -0.23055151262272816 8.682269291505236e-13 -4.32011085663565e-18 -0.004427232802131519 1.061364856004654e-14 -1.0798459478321343e-19 -1.617922336571737e-5 1.0996637251002121e-17 -0.0
C    0.9396489752555244 -9.286472865358603e-13 9.597903582089636e-18 0.00442723280212967 -1.2751074199503825e-14 1.199828830924594e-19 1.6179223365722666e-5 -6.117304598598707e-18 0.0
H    1.481595502573503 1.21637815131548 -1.3652982108327896e-16 0.007615709552449462 0.01070237082799825 -1.7156123914565824e-18 -9.044329726234784e-6 -5.258649175912736e-5 0.0
H    1.481595502572173 -1.216378151317499 -9.36395112968644e-17 0.007615709552427064 -0.010702370828021848 -1.1437415943043886e-18 -9.04432972625321e-6 5.25864917591185e-5 -0.0
H    -0.772498039939533 1.21637815131864 9.507785176335967e-17 -0.007615709552425617 0.010702370828043917 1.5726446921685336e-18 9.04432972628698e-6 -5.2586491759193006e-5 0.0
H    -0.7724980399401312 -1.2163781513159304 7.220301987727191e-17 -0.007615709552428876 -0.010702370827994854 1.1437415943043884e-18 9.044329726188207e-6 5.258649175914438e-5 -0.0
6
i = 9; t = 90.0; V = -77.805533094692; K = 3.7733009857958795; qed-freq = 0.5; qed-pol = [1, 0, 0]; qed-coup = 0.05; basis = aug-cc-pvdz; Δt = 10.0
C    -0.2752519244588194 9.746543732424884e-13 -5.3999568044677845e-18 -0.0044879730443670544 1.0635221482426564e-14 -1.0798459478321342e-19 -6.777261147263112e-6 -2.84325425005292e-18 -0.0
C    0.9843493870915972 -1.0563198854401904e-12 1.0797732413014229e-17 0.004487973044365225 -1.2755177614105587e-14 1.199828830924594e-19 6.7772611472652205e-6 4.5664386440243865e-18 -0.0
H    1.5575132954390392 1.3220104809434046 -1.5368594499784479e-16 0.007556030371043074 0.010410295524735085 -1.7156123914565824e-18 -1.3511131913026722e-5 -5.780197442420591e-5 0.0
H    1.5575132954374846 -1.3220104809456596 -1.0507692723990828e-16 0.007556030371020608 -0.010410295524758648 -1.1437415943043886e-18 -1.3511131913034017e-5 5.7801974424227855e-5 0.0
H    -0.8484158328048292 1.3220104809470192 1.1080429868504501e-16 -0.007556030371019099 0.01041029552478042 1.5726446921685336e-18 1.351113191302386e-5 -5.780197442426584e-5 0.0
H    -0.8484158328054627 -1.3220104809438205 8.36404358203158e-17 -0.00755603037102279 -0.010410295524731595 1.1437415943043884e-18 1.3511131912959827e-5 5.780197442422401e-5 0.0
6
i = 10; t = 100.0; V = -77.719310129145; K = 3.68848395111545; qed-freq = 0.5; qed-pol = [1, 0, 0]; qed-coup = 0.05; basis = aug-cc-pvdz; Δt = 10.0
C    -0.32031097351006926 1.080931358799055e-12 -6.479802752299919e-18 -0.004507945429421866 1.0591641678408522e-14 -1.0284766454573024e-19 -7.712064143312168e-7 -1.3572344450412104e-17 -0.0
C    1.0294084361428288 -1.1837508388179723e-12 1.1997561243938822e-17 0.004507945429420073 -1.270854228832641e-14 1.1312152502069663e-19 7.71206414334187e-7 1.3114340177277584e-17 -4.534695773609123e-21
H    1.6327161099943646 1.4245840618101817 -1.7084206891241061e-16 0.007478815102181932 0.010101874796669252 -1.7104754612190994e-18 -1.56720102434205e-5 -5.876416701247136e-5 0.0
H    1.632716109992585 -1.424584061812672 -1.1651434318295216e-16 0.007478815102159443 -0.010101874796692674 -1.1386046640669055e-18 -1.5672010243422066e-5 5.8764167012501995e-5 0.0
H    -0.923618647359915 1.4245840618142482 1.2653074560673035e-16 -0.0074788151021580145 0.010101874796714358 1.5777816224060169e-18 1.5672010243393158e-5 -5.8764167012497075e-5 0.0
H    -0.923618647360587 -1.4245840618105623 9.507785176335967e-17 -0.0074788151021619835 -0.01010187479666571 1.1488785245418716e-18 1.5672010243352148e-5 5.8764167012472274e-5 0.0
