30
i = 0; t = 0.0; V = -760.371550668322; K = 0.0; qed-freq = 0.5; qed-pol = [0.0, 1.0, 0.0]; qed-coup = 0.0; basis = cc-pvdz; Δt = 25.0
O    -1.36725 -0.92663 -1.90879 0.0 0.0 0.0
H    -1.74234 -0.11926 -1.45603 0.0 0.0 0.0
H    -1.26991 -0.5386 -2.80044 0.0 0.0 0.0
O    -3.22927 -2.3822 -0.41777 0.0 0.0 0.0
H    -2.6378 -2.04056 -1.12709 0.0 0.0 0.0
H    -2.57307 -2.56072 0.28293 0.0 0.0 0.0
O    -2.64427 1.14824 -0.85354 0.0 0.0 0.0
H    -2.42916 1.95307 -0.31878 0.0 0.0 0.0
H    -3.50371 0.91709 -0.43548 0.0 0.0 0.0
O    0.33397 0.18985 1.13976 0.0 0.0 0.0
H    0.57476 -0.7376199999999999 0.9005 0.0 0.0 0.0
H    -0.56818 0.01346 1.50704 0.0 0.0 0.0
O    1.1618299999999997 1.19691 -1.3441 0.0 0.0 0.0
H    1.78383 0.50993 -1.63489 0.0 0.0 0.0
H    0.72519 0.74469 -0.58806 0.0 0.0 0.0
O    0.58685 -2.04755 -0.37608 0.0 0.0 0.0
H    0.82665 -2.88213 -0.81286 0.0 0.0 0.0
H    -0.11466 -1.70341 -0.9798 0.0 0.0 0.0
O    -2.14222 3.15189 0.94066 0.0 0.0 0.0
H    -1.15601 3.2046500000000004 0.861 0.0 0.0 0.0
H    -2.27686 3.72975 1.71058 0.0 0.0 0.0
O    -4.6222 -0.26519 0.47588 0.0 0.0 0.0
H    -4.32243 -1.12357 0.08076 0.0 0.0 0.0
H    -5.587599999999999 -0.35347 0.38297 0.0 0.0 0.0
O    -2.18761 -0.53766 1.97494 0.0 0.0 0.0
H    -2.93282 -0.22087 1.41557 0.0 0.0 0.0
H    -2.62261 -0.57164 2.84473 0.0 0.0 0.0
O    0.53011 2.94997 0.77347 0.0 0.0 0.0
H    0.88772 2.78719 -0.12816 0.0 0.0 0.0
H    0.64677 2.04447 1.14681 0.0 0.0 0.0
30
i = 1; t = 25.0; V = -760.374603113081; K = 0.0029341765657213068; qed-freq = 0.5; qed-pol = [0.0, 1.0, 0.0]; qed-coup = 0.0; basis = cc-pvdz; Δt = 25.0
O    -1.3673152167204536 -0.9263895345671197 -1.9089265839857725 -5.147387099374578e-6 1.874352226615626e-5 -1.0528521655116855e-5
H    -1.741586661319833 -0.12110279645555823 -1.456191318031722 5.864819174152616e-5 -0.00014358511428226695 -1.1296399431258146e-5
H    -1.2697571300574362 -0.5403707398940009 -2.79842220630911 1.2984702531580104e-5 -0.0001377353975090689 0.00015313564429550732
O    -3.2290213731653497 -2.3822060746028457 -0.41778435018937055 1.9219049205778985e-5 -5.615949215341993e-7 -1.1570313257222696e-6
H    -2.6397926323090037 -2.0413879777262762 -1.125666014435583 -0.0001543360910706955 -6.359054776608139e-5 0.00010808854501967635
H    -2.5750775928106076 -2.5602932092991533 0.28160640695635514 -0.00015471717519626582 3.2474055647721946e-5 -9.983890973612561e-5
O    -2.6444153061162634 1.1483887462857059 -0.8533421673019146 -1.1246027621882024e-5 1.156314238264765e-5 1.52788593198436e-5
H    -2.429274445786224 1.9507402045946207 -0.3206103852741376 -7.348403136727864e-6 -0.00017894787744749123 -0.0001415655727464971
H    -3.501470359574262 0.9171086949782719 -0.43724638487742046 0.00017115877290396097 -3.4120566065960997e-7 -0.00013716196323803985
O    0.3338256326406531 0.1895739296819305 1.1398097829236518 -1.1191887749144324e-5 -2.1397999593607365e-5 3.923649742058581e-6
H    0.5749534760968581 -0.7346054130221775 0.9011334157880674 1.7461068511485436e-5 0.00023209667358036073 4.8471750695488496e-5
H    -0.5657931687676594 0.014785250269903174 1.506127203576553 0.0001832264323879651 0.00010409405709171023 -6.985869781812703e-5
O    1.1618524208028442 1.1966943252345794 -1.3440363506150754 1.6888067700371884e-6 -1.663194120393822e-5 4.855566684076968e-6
H    1.7825881753655801 0.511845974635155 -1.6344279661331975 -9.388507320468358e-5 0.00014723900490209966 3.431036614998134e-5
H    0.7260675931036035 0.7461887012752133 -0.5899803049319307 6.647649614997838e-5 0.00011606374540074584 -0.00014729542753866753
O    0.5867629882905544 -2.0476782940312237 -0.37629064153373637 -6.733116587921249e-6 -9.938635884386943e-6 -1.6279826105753674e-5
H    0.8264794161771907 -2.8802030394118385 -0.8113062340942653 -1.1557447733783688e-5 0.00014650798959480607 0.00012014386962914972
H    -0.11269229387908486 -1.703760747587577 -0.9781343487995445 0.00015170007768942168 -2.565590375706927e-5 0.0001284288300727504
O    -2.1420650959615193 3.152042306285084 0.9408144324946816 1.2060287253862171e-5 1.1801600688586058e-5 1.1919775510665795e-5
H    -1.158153117810214 3.2040869130649177 0.8607186970052053 -0.000165503622226309 -4.432380268728145e-5 -2.2707237930948853e-5
H    -2.277345314844682 3.7281875952475265 1.708579821730363 -3.979891754064824e-5 -0.00011949382383152346 -0.00015276146808964944
O    -4.622388224840053 -0.2653814654188416 0.47578428158098834 -1.4590141407644047e-5 -1.4874444367401615e-5 -7.4213107730908794e-6
H    -4.322310267710168 -1.1214122638859614 0.08184578666383072 1.0811502200116235e-5 0.0001667456000475357 8.414254563761592e-5
H    -5.5852941573659445 -0.3525019279573233 0.38362974014346074 0.000175573660131069 7.62852332475186e-5 5.1713262235841235e-5
O    -2.187872714196108 -0.5376182181163113 1.9749921493001823 -2.030824781874721e-5 3.174913873294594e-6 4.025878732128761e-6
H    -2.930414719250646 -0.22164812515285703 1.4169957949401277 0.00018508320744115185 -5.908262724350764e-5 0.00010842198612863266
H    -2.621050506357046 -0.5716814262846807 2.842854963488168 0.0001207816870472417 -3.688508229623991e-6 -0.00014214192093747578
O    0.5302381014227806 2.949770229051778 0.7733692345668369 9.974705636183079e-6 -1.5370894520919935e-5 -7.756831952973115e-6
H    0.8867081243113166 2.788109799130556 -0.12572045809894808 -7.751218978578735e-5 7.226786652879859e-5 0.00018654746381292694
H    0.6463520190621419 2.0472552262267043 1.1461510608941536 -3.228829052088943e-5 0.00021429770814426383 -4.904560239168705e-5
30
i = 2; t = 50.0; V = -760.381924107665; K = 0.009957674887269808; qed-freq = 0.5; qed-pol = [0.0, 1.0, 0.0]; qed-coup = 0.0; basis = cc-pvdz; Δt = 25.0
O    -1.3675073693549686 -0.9256928238866922 -1.9093164260827558 -1.0014843919389043e-5 3.553245371260568e-5 -1.949929313471211e-5
H    -1.7394075904129238 -0.12643925571411335 -1.4565948199715628 0.00011079546842156702 -0.00027180123534263704 -1.61425371274694e-5
H    -1.2692607648734209 -0.5454867698754534 -2.792783217785224 2.894997444990522e-5 -0.00026009706297259425 0.00027377228366683187
O    -3.228309047539711 -2.382228079746077 -0.41782785156628605 3.57990399345922e-5 -1.4056897343740125e-6 -2.3455365246378427e-6
H    -2.645516804553535 -2.043739527388304 -1.121685572749016 -0.0002886483467446899 -0.00011670378194130653 0.0001931667925967542
H    -2.5808058587598133 -2.559096297217614 0.27793805451319376 -0.000286382418336808 5.844477731449399e-5 -0.00017599746445213618
O    -2.6448323013810944 1.1488181571191323 -0.8527760570340077 -2.10012165765863e-5 2.1783257209174577e-5 2.8386756042764695e-5
H    -2.429527420156836 1.9441226061276253 -0.32585827863732486 -7.51345431832945e-6 -0.0003283404577002691 -0.0002637521745279465
H    -3.495152061354802 0.9170729397169669 -0.442338098161902 0.0003107226027962258 -7.959024467852767e-6 -0.00025800668826305795
O    0.3334104056125428 0.18878010002031964 1.1399561824871032 -2.096624654204877e-5 -4.007007296278342e-5 7.611269783963196e-6
H    0.5756330534255744 -0.726015166320982 0.9029235875347743 4.282682119809796e-5 0.0004282326538913045 8.82063730588623e-5
H    -0.5590186783806017 0.018664702854585512 1.5035470651090934 0.00033578555859294383 0.00020056553381438504 -0.0001271595813725656
O    1.1619144403385016 1.196078402939803 -1.343857221665796 2.976585975069149e-6 -3.0831509353909816e-5 8.776685068980724e-6
H    1.779135746339766 0.517291950245105 -1.6331744816925011 -0.00016643633079182872 0.00027090327248027317 5.828778177655969e-5
H    0.728513824807499 0.7504931872700373 -0.5954247713769335 0.00011822478389913415 0.00021699527543554424 -0.0002695701128804002
O    0.586513344170604 -2.0480469317942194 -0.37689399130528767 -1.256046372671879e-5 -1.8610037859853293e-5 -3.031397241001082e-5
H    0.8260721276133108 -2.8748046005202603 -0.8068528065185425 -1.4929286676816162e-5 0.0002630962936826429 0.0002240414519148668
H    -0.10707499611552891 -1.7046927951878537 -0.9733785584963623 0.00028078068404448984 -4.17369280370192e-5 0.00023772631239098464
O    -2.1416169856373073 3.152480080034429 0.9412559887755334 2.2802932579837325e-5 2.210495295665177e-5 2.2140077374237698e-5
H    -1.1642851811113155 3.2024338098656364 0.8598646381034525 -0.0003073512515174249 -8.581247657318202e-5 -4.622238964790617e-5
H    -2.278849945877033 3.723775308808424 1.7029419265955175 -8.343152244938648e-5 -0.00021748478263471031 -0.00027715020289882777
O    -4.622929507070382 -0.2659337222183701 0.4755089344613455 -2.735309843622514e-5 -2.799774789172933e-5 -1.390956882368093e-5
H    -4.321889424889993 -1.1152327199976233 0.0849671272818808 2.658965858516059e-5 0.0003102063397246908 0.00015749684544880203
H    -5.578821316993447 -0.3496557383376241 0.385555663111792 0.000316320347997712 0.00014804424878310228 9.927874345431388e-5
O    -2.1886254123909374 -0.5375012543063352 1.9751412939366064 -3.782540970835871e-5 5.684460651142898e-6 7.495741178251723e-6
H    -2.923565839627942 -0.2238241313621754 1.4209910993064316 0.0003411476799094654 -0.00010563734247703869 0.0001945855663535225
H    -2.6165709156476376 -0.5718244254114813 2.8376229039531267 0.00022603391777727998 -8.832024597513348e-6 -0.0002535482858167136
O    0.5306087352818091 2.949201455273954 0.7730821584023515 1.88667605490657e-5 -2.832319901891674e-5 -1.4316998091189212e-5
H    0.8838443905107107 2.7908033933264402 -0.11883262680935365 -0.00014146595415611866 0.00013931018459364966 0.0003391056014556021
H    0.6451555854739555 2.0551848854072134 1.1443577198804158 -6.003253489829329e-5 0.0003948711022920316 -8.358567846602192e-5
30
i = 3; t = 75.0; V = -760.388956413245; K = 0.016681698430888927; qed-freq = 0.5; qed-pol = [0.0, 1.0, 0.0]; qed-coup = 0.0; basis = cc-pvdz; Δt = 25.0
O    -1.367815958916423 -0.9246129118814894 -1.9099015486425082 -1.4324266164850878e-5 4.852207080496423e-5 -2.5527733781563053e-5
H    -1.7360468878987547 -0.13469285822269006 -1.4569984448880955 0.0001499826261562231 -0.0003694517494667834 -8.17767353638555e-6
H    -1.2683096313349407 -0.5533755930426305 -2.7847335921257685 5.064204336579262e-5 -0.00035321955930483535 0.00033259196626592787
O    -3.22723142116862 -2.3822763590895644 -0.4179016270156024 4.7324173971322635e-5 -2.799331926893624e-6 -3.537804827228347e-6
H    -2.654225049646238 -2.0472231668233416 -1.1160076748057453 -0.00038432986875534396 -0.00014952832846430516 0.00023388947949729656
H    -2.5893967137274476 -2.5573709704334284 0.27280653373374836 -0.00037430168631353124 7.219237681932298e-5 -0.00020723916351497512
O    -2.645465366945093 1.1494779091461647 -0.8519228294997763 -2.7893719263598638e-5 2.9358270916001674e-5 3.7275032893764885e-5
H    -2.42965011850214 1.934323181709607 -0.3337979940005349 6.320434304527846e-6 -0.0004199913967544644 -0.00034791910601115984
H    -3.4859342294344504 0.9167107437548792 -0.45014671929057337 0.0003895085346148534 -2.9650499562970607e-5 -0.00034758900332311623
O    0.3327773203135507 0.18757042603379132 1.1401903464128502 -2.7980610698571824e-5 -5.3441534318834e-5 1.0830827479102979e-5
H    0.577094817156763 -0.7131937803276123 0.9055437344410104 8.3673964531431e-5 0.0005544681883326646 0.00011095316600378261
H    -0.5490038908380122 0.024813526960622428 1.4997692245079244 0.0004284940552176607 0.00028221236892304457 -0.00016001193033959196
O    1.1620012501015975 1.195152749766884 -1.3435975163616263 3.541428269665733e-6 -4.039810923883485e-5 1.086359124252687e-5
H    1.7742663588259888 0.5253911382591686 -1.6315135770443696 -0.00019868880645886787 0.00035007459072194686 6.283691073734613e-5
H    0.7319788322985603 0.7570384650469906 -0.6034588105759506 0.0001415734477332981 0.0002886966380301173 -0.00034344438925402386
O    0.5861349651042185 -2.048608795924216 -0.3778063401542369 -1.661305266608464e-5 -2.491315329883327e-5 -4.0031806769042004e-5
H    0.8257329518433498 -2.8670482247277067 -0.8001041614985219 -2.778128095180145e-6 0.0003230195991602264 0.0002972215670446762
H    -0.09865325967686035 -1.7058475939894278 -0.9662480331799953 0.0003660108071760639 -3.906360668140478e-5 0.00030974966678466134
O    -2.1409249493325273 3.1531475539329166 0.9419214363633933 3.096695726448715e-5 2.956124113097759e-5 2.9136095392211305e-5
H    -1.1735206803860854 3.1997962892362586 0.8584075775228099 -0.00040280855376673787 -0.00012186585316701227 -7.126948743256012e-5
H    -2.281516890967151 3.717313356115791 1.6947223115854215 -0.00013437545844322346 -0.0002747693811816467 -0.00034784652049501565
O    -4.623755879761864 -0.2667813528134281 0.47508880313980434 -3.666706862055962e-5 -3.772687968840081e-5 -1.8601392871380275e-5
H    -4.32098078478091 -1.1059019468997269 0.08972062893627082 5.2264950883457924e-5 0.00040828032663804654 0.00020984300621105145
H    -5.569478139966059 -0.3450997155181682 0.38859367731617644 0.0003909905270452671 0.00021123091735696336 0.0001390168045449644
O    -2.189763984681526 -0.5373339950837541 1.975366936359095 -4.9983050984395876e-5 6.8979191798634915e-6 9.964445696663785e-6
H    -2.9133573352551725 -0.22692999227670896 1.4267250732578036 0.0004410973976097356 -0.0001279345380104382 0.00023784967860386057
H    -2.6097488104681816 -0.5721230275145563 2.8301775491973324 0.0003019487362480784 -1.668610802704369e-5 -0.0003067895823430165
O    0.5311814394502339 2.9483540691008323 0.7726533846622775 2.5656383926122996e-5 -3.6584499400962784e-5 -1.8577661653816357e-5
H    0.8796348266035107 2.7950753083602384 -0.10876517802616797 -0.00017931479610777126 0.00019615224641970233 0.00042625658775765957
H    0.6433503923172272 2.0669987813413058 1.1419717769708524 -7.89790557979834e-5 0.0005100567719525746 -9.010603025489033e-5
