30
i = 0; t = 0.0; V = -760.201163679853; K = 0.0; qed-freq = 0.5; qed-pol = [0.0, 1.0, 0.0]; qed-coup = 0.1; basis = cc-pvdz; Δt = 25.0
O    -1.36725 -0.92663 -1.90879 0.0 0.0 0.0
H    -1.74234 -0.11926 -1.45603 0.0 0.0 0.0
H    -1.26991 -0.5386 -2.80044 0.0 0.0 0.0
O    -3.22927 -2.3822 -0.41777 0.0 0.0 0.0
H    -2.6378 -2.04056 -1.12709 0.0 0.0 0.0
H    -2.57307 -2.56072 0.28293 0.0 0.0 0.0
O    -2.64427 1.14824 -0.85354 0.0 0.0 0.0
H    -2.42916 1.95307 -0.31878 0.0 0.0 0.0
H    -3.50371 0.91709 -0.43548 0.0 0.0 0.0
O    0.33397 0.18985 1.13976 0.0 0.0 0.0
H    0.57476 -0.7376199999999999 0.9005 0.0 0.0 0.0
H    -0.56818 0.01346 1.50704 0.0 0.0 0.0
O    1.1618299999999997 1.19691 -1.3441 0.0 0.0 0.0
H    1.78383 0.50993 -1.63489 0.0 0.0 0.0
H    0.72519 0.74469 -0.58806 0.0 0.0 0.0
O    0.58685 -2.04755 -0.37608 0.0 0.0 0.0
H    0.82665 -2.88213 -0.81286 0.0 0.0 0.0
H    -0.11466 -1.70341 -0.9798 0.0 0.0 0.0
O    -2.14222 3.15189 0.94066 0.0 0.0 0.0
H    -1.15601 3.2046500000000004 0.861 0.0 0.0 0.0
H    -2.27686 3.72975 1.71058 0.0 0.0 0.0
O    -4.6222 -0.26519 0.47588 0.0 0.0 0.0
H    -4.32243 -1.12357 0.08076 0.0 0.0 0.0
H    -5.587599999999999 -0.35347 0.38297 0.0 0.0 0.0
O    -2.18761 -0.53766 1.97494 0.0 0.0 0.0
H    -2.93282 -0.22087 1.41557 0.0 0.0 0.0
H    -2.62261 -0.57164 2.84473 0.0 0.0 0.0
O    0.53011 2.94997 0.77347 0.0 0.0 0.0
H    0.88772 2.78719 -0.12816 0.0 0.0 0.0
H    0.64677 2.04447 1.14681 0.0 0.0 0.0
30
i = 1; t = 25.0; V = -760.204926893573; K = 0.0036170757959125537; qed-freq = 0.5; qed-pol = [0.0, 1.0, 0.0]; qed-coup = 0.1; basis = cc-pvdz; Δt = 25.0
O    -1.3673213156111568 -0.9263431139078708 -1.9089298643086443 -5.607798217614535e-6 2.2361368484708192e-5 -1.0793838003378937e-5
H    -1.741460597894246 -0.12156550730267834 -1.4563234927999433 6.828226419130658e-5 -0.00017949729777761686 -2.134487786647758e-5
H    -1.2697499726554045 -0.540630044844471 -2.7983479375808686 1.3596519093132233e-5 -0.0001580940953367912 0.00015855008242754296
O    -3.2290108915947098 -2.3821986064629197 -0.41778575170418947 2.0028309724056906e-5 2.9766200485909636e-8 -1.2599468021587477e-6
H    -2.6398871953074314 -2.0415515310599193 -1.1256028768864983 -0.0001616138764252306 -7.64839070174984e-5 0.00011278088347765875
H    -2.5751341764551094 -2.5602355424368817 0.2815477116763575 -0.00015904348199215017 3.6995109435815886e-5 -0.00010430092353918725
O    -2.6444206383071833 1.1484087959898512 -0.8533254007756904 -1.1663845382787563e-5 1.3098259120806442e-5 1.6559234761198096e-5
H    -2.4293246697419058 1.9502923526432243 -0.320798551746697 -1.0982897310913267e-5 -0.00021344779577843996 -0.000155846832475566
H    -3.501343526303507 0.917219944232173 -0.4373535483308161 0.0001807661280972151 8.387635005639064e-6 -0.0001454894737609261
O    0.33382272405621605 0.18952677381576877 1.1398080670141324 -1.1431130841061804e-5 -2.5032502524576842e-5 3.806075717019012e-6
H    0.5749127827809832 -0.7339908065007364 0.9012042215083301 1.4664681772536267e-5 0.0002792511302242006 5.3669084140301135e-5
H    -0.565671884218819 0.014870984904270291 1.5061087837031373 0.00019256120652355802 0.0001108033938911004 -7.118649174495062e-5
O    1.1618601012799368 1.1966470547071564 -1.344032590970747 2.260761666609012e-6 -2.0306091160621723e-5 5.149142043031327e-6
H    1.7824808322277368 0.5123162826301667 -1.6344418103306568 -0.00010156613858384008 0.00018362227454168684 3.283820969746524e-5
H    0.7261056652734711 0.7464574345598616 -0.590074262892567 6.92917261492164e-5 0.00013707240769581804 -0.00015432194084320322
O    0.5867614570591679 -2.0477053573189252 -0.3763044746471802 -6.8697193364010924e-6 -1.1996535015756568e-5 -1.7314205528402024e-5
H    0.8264485191323341 -2.8796239218776276 -0.8111768648998904 -1.3452300993334121e-5 0.00019086578207667075 0.00012960455056295697
H    -0.11261690540842043 -1.7039251342321384 -0.9780433310203174 0.00015739170769006963 -3.8565416774003405e-5 0.00013549602527061482
O    -2.1420614821997166 3.152067909246712 0.9408247332147219 1.234955452909534e-5 1.3796015192838545e-5 1.2688852523334577e-5
H    -1.158208131894559 3.2040377319093807 0.8607026187301872 -0.00016983484900561177 -4.818686585305636e-5 -2.3995524118569095e-5
H    -2.2773592681269466 3.727835332641684 1.7084695616512915 -4.104448262747724e-5 -0.0001468998782183522 -0.00016070111288304752
O    -4.622392577019947 -0.2654208050436594 0.4757764337821033 -1.4950384921998602e-5 -1.791470433082608e-5 -8.01817603386845e-6
H    -4.3224168903850275 -1.1208967429353396 0.08196261197027489 2.714894968169814e-6 0.00020651687676493237 9.284954932825917e-5
H    -5.585223100974766 -0.352425463960722 0.38367083676498265 0.0001809803493825519 8.231903939517847e-5 5.497305921882433e-5
O    -2.1878799343738975 -0.5376069010565684 1.9749954374500303 -2.0869057862796392e-5 4.071176534783269e-6 4.292809096285108e-6
H    -2.9303832769793603 -0.2218085427641678 1.4170322205112182 0.00018739785019677624 -7.176724471703035e-5 0.00011116415032227658
H    -2.6210084620550425 -0.5716681378641626 2.8428346898030745 0.0001240913725954928 -2.6309942715889077e-6 -0.00014365338774279595
O    0.5302453355110617 2.949724147181807 0.7733669627030595 1.0527256936597763e-5 -1.892411434651048e-5 -7.956977621652639e-6
H    0.8866429523749322 2.7882718230647776 -0.12561125091877476 -8.252864493840812e-5 8.503079174875448e-5 0.00019482493448250252
H    0.6463088194733166 2.047885635414041 1.1461190237773902 -3.549737504821113e-5 0.0002627514597748283 -5.0909309405664883e-5
30
i = 2; t = 50.0; V = -760.213944224799; K = 0.012264386803099984; qed-freq = 0.5; qed-pol = [0.0, 1.0, 0.0]; qed-coup = 0.1; basis = cc-pvdz; Δt = 25.0
O    -1.3675303899108806 -0.9255119315757646 -1.909329691900169 -1.0822699182657186e-5 4.237987495015352e-5 -2.004317483666258e-5
H    -1.7389258867904347 -0.12823486488888086 -1.4570972438933238 0.000128197358784299 -0.0003391001009137941 -3.406671262604264e-5
H    -1.2692301740453436 -0.5465047047668395 -2.7925124958786225 3.0333819097427206e-5 -0.00029929507943917967 0.0002824739633480561
O    -3.228268584513797 -2.3821985116899755 -0.4178329973401079 3.7297879364757185e-5 -2.5779756541389804e-7 -2.5094489969556055e-6
H    -2.6458806938212613 -2.044384195350875 -1.1214509558261168 -0.0003020299626236135 -0.00014171568973612433 0.00020107429129414848
H    -2.581022174099607 -2.5588702445282094 0.2777149538230406 -0.00029423007977932 6.712590973682429e-5 -0.00018397807972765423
O    -2.644853192269139 1.1488949129560402 -0.8527120382619401 -2.180178310862894e-5 2.456929988930545e-5 3.069572113153185e-5
H    -2.429709144865546 1.9423976102110783 -0.3265723416237783 -1.319638692624414e-5 -0.0003918970402640941 -0.00028911659200544246
H    -3.4946716935951394 0.917509381750282 -0.44275447368804627 0.0003277399114795836 8.802302628152579e-6 -0.0002736728543113216
O    0.3333984434579469 0.18859837487377115 1.139950303785851 -2.1473852901152332e-5 -4.6776273954447236e-5 7.458123685589076e-6
H    0.575493234088627 -0.72365744348879 0.9031834542070151 3.915302129026763e-5 0.000514305839853682 9.666008472842762e-5
H    -0.5585519396738221 0.01900016969455502 1.5034806754127523 0.0003529486749460967 0.00021338852082191284 -0.00012921745739435969
O    1.1619430380833302 1.195894695441969 -1.3438425428978484 3.950879226697592e-6 -3.774237759811406e-5 9.332464213066673e-6
H    1.778751693070808 0.5191111137270843 -1.6332480895151265 -0.00017815136947102252 0.00033874262466481125 5.38658473623572e-5
H    0.7286545863074608 0.7515436203847908 -0.5957760970421602 0.00012290666483646533 0.00025704943735425776 -0.0002816032953306547
O    0.5865065140331799 -2.048149826750788 -0.3769457102764201 -1.2889605641113739e-5 -2.229691073674395e-5 -3.209312731167843e-5
H    0.8259773849503333 -2.872586710896167 -0.8063797724718522 -1.6375787752944593e-5 0.0003439174965916577 0.00023939489798874462
H    -0.10679041461549652 -1.7053382708387004 -0.9730251987364693 0.00029075448157033564 -6.656578044415147e-5 0.00025095894779718635
O    -2.1416025222735455 3.152579800759641 0.9412944426261667 2.3380996090545353e-5 2.588976096284255e-5 2.345290384673411e-5
H    -1.1645017424502804 3.2022406567073474 0.8598002237940715 -0.0003156849099962411 -9.32624605598527e-5 -4.880451269195444e-5
H    -2.278912224131374 3.7224050060890823 1.7025449443558478 -8.645603780213252e-5 -0.0002692253692426254 -0.0002894891557448452
O    -4.622947519246099 -0.2660857352165413 0.47547909119830656 -2.812287565792165e-5 -3.367371764151381e-5 -1.4937609815167475e-5
H    -4.322294255251592 -1.1132441561617534 0.08540247746641295 1.2202799576301998e-5 0.00038376754853384197 0.00017231814299048333
H    -5.578550982530872 -0.3493540480302411 0.38571865296094116 0.00032601239246674013 0.0001597760301779213 0.00010566869928993046
O    -2.18865345289314 -0.5374564411732609 1.9751546404548141 -3.8874468946155576e-5 7.441917294342463e-6 8.046441888717126e-6
H    -2.923450107490161 -0.22445836223585153 1.4211282075161138 0.0003449336529719382 -0.00013041911147959444 0.00019934221344980262
H    -2.6164054313702256 -0.5717715497135795 2.8375473306128605 0.00023243572467201385 -6.739795047914185e-6 -0.0002560975713993439
O    0.5306363628468298 2.9490237942826747 0.7730721511189174 1.9864322608445964e-5 -3.4888991371215624e-5 -1.4788943262305503e-5
H    0.8835935677530796 2.7914415395874372 -0.11841875327587487 -0.0001507016796108389 0.00016404974270113552 0.0003538242032409258
H    0.6449951312475894 2.0576075729887413 1.1442645345297169 -6.543974677188273e-5 0.00048372031413607575 -8.444624276443869e-5
30
i = 3; t = 75.0; V = -760.222548513469; K = 0.020482146086524714; qed-freq = 0.5; qed-pol = [0.0, 1.0, 0.0]; qed-coup = 0.1; basis = cc-pvdz; Δt = 25.0
O    -1.3678624505702897 -0.9242241201603631 -1.9099320230504773 -1.5245978022439086e-5 5.781528658598417e-5 -2.638571501854569e-5
H    -1.7350507299550308 -0.13852051234836804 -1.4580268284312454 0.00017124766852185064 -0.00045881276629803486 -2.943656764404986e-5
H    -1.2682332817005333 -0.5555947988164298 -2.784224239413466 5.312065234796658e-5 -0.0004083473274560834 0.00034034982293208775
O    -3.227145997626472 -2.3822114963411907 -0.4179112241540373 4.9268203496409864e-5 -1.168129760036118e-6 -3.68630235606644e-6
H    -2.654988693438612 -2.048637315546725 -1.1155491623217908 -0.00040141892135598127 -0.00018510051713819216 0.0002419573153791825
H    -2.5898456804440753 -2.5568792469500403 0.27234880768997477 -0.0003840751066064198 8.435411143316338e-5 -0.00021685091789268275
O    -2.6455107274626144 1.1496372609843164 -0.8517906147191138 -2.900892308043043e-5 3.280540726909732e-5 4.008968566784929e-5
H    -2.429984489088218 1.9306975006300198 -0.3352543813469691 1.9039617082843489e-6 -0.0005014407650307921 -0.00037769611707144223
H    -3.484956530729528 0.9176600593635806 -0.4510371910463821 0.00040947260204891894 -6.26543483984389e-6 -0.0003686244315812611
O    0.3327490314111584 0.18718796011804642 1.1401809731984118 -2.882431081708018e-5 -6.207468133629966e-5 1.0814379090908052e-5
H    0.5768704338454966 -0.7082755145080524 0.9060372257447515 8.31954757113392e-5 0.0006626525745752664 0.00011860085068792587
H    -0.5480244504715142 0.025540410945365934 1.499647910833419 0.0004504001765270118 0.0002999709657381808 -0.00016157300737410697
O    1.1620576452412714 1.194759935827251 -1.3435659677600937 4.58659460215224e-6 -4.9695476520681656e-5 1.1615915417370144e-5
H    1.773573263754186 0.5292534138634073 -1.631748517962539 -0.00020721826704362455 0.0004398314374176783 5.2529746872059104e-5
H    0.7322509985152943 0.7593099064275745 -0.6041544276590998 0.00014617394397015916 0.0003439194430938519 -0.0003563383311505112
O    0.5861169767771123 -2.0488202028557625 -0.37790913101276413 -1.7241534720551034e-5 -2.9388340161794285e-5 -4.198084247388378e-5
H    0.8256297297446868 -2.862428047048045 -0.7992071200004531 9.529566140611115e-7 0.0004248177777129933 0.00031142452598082625
H    -0.09807918132990366 -1.707253423254346 -0.9654953836304581 0.0003773050132353922 -7.37796031890484e-5 0.0003272122464210637
O    -2.140892432395189 3.1533623972948535 0.9419973784070585 3.1829447046060614e-5 3.474367368516371e-5 3.054737347910239e-5
H    -1.173992377394371 3.199374608881388 0.8582623930955896 -0.0004143213481036559 -0.0001323770704637893 -7.516514976285738e-5
H    -2.281682070017053 3.714374064179553 1.6939951038640493 -0.000140288384438295 -0.000344943409676692 -0.0003575540235411983
O    -4.623798720802842 -0.2671044909257351 0.47502955329134494 -3.795405194486646e-5 -4.5230290173791366e-5 -1.9710395354845212e-5
H    -4.321806750406213 -1.1017083655086475 0.09057851911979907 3.540736651980842e-5 0.0005034955505844749 0.000225471844731422
H    -5.568922481351429 -0.34443666245182586 0.3889542717294791 0.00040273335635430317 0.000228029715348243 0.00014827888774648045
O    -2.1898236578212056 -0.5372348051918514 1.975397759544466 -5.136847925806232e-5 9.449550871414803e-6 1.0833171004961413e-5
H    -2.9131365943307634 -0.22832949833814753 1.4269993311837081 0.0004445572141434586 -0.00016369181475679894 0.00024310362357358493
H    -2.609386675821442 -0.5720051276165582 2.8300298112331075 0.0003110111515727235 -1.3600938822038776e-5 -0.00030940221475590096
O    0.531238551641484 2.947979697613246 0.7726275155399442 2.6877284920794793e-5 -4.506809046891627e-5 -1.9476431236381305e-5
H    0.8791078683943903 2.7964743101998346 -0.10792004075672845 -0.0001911726263932081 0.00023135280943294677 0.00044373243989122096
H    0.6430368321347225 2.0720716511208446 1.1418967116391683 -8.451021963985138e-5 0.0006229797177382115 -8.401019113495567e-5
30
i = 1; t = 100.0; V = -760.225032589963; K = 0.022855872492669176; qed-freq = 0.5; qed-pol = [0.0, 1.0, 0.0]; qed-coup = 0.1; basis = cc-pvdz; Δt = 25.0
O    -1.3682926887812799 -0.9226211672190011 -1.9106489776168794 -1.8488523133280154e-5 6.677997814891535e-5 -2.8926036070465978e-5
H    -1.7303635036546448 -0.15117550251187234 -1.4585690717397646 0.00018943613593389583 -0.0005199253402388527 5.998178258467182e-7
H    -1.2665741412978597 -0.5669220709424676 -2.7754950052128877 8.408507949255543e-5 -0.00047411178163215845 0.0003094872944382339
O    -3.2258051725569916 -2.382256693684996 -0.41801756085070463 5.399757896104853e-5 -2.954893377597105e-6 -4.657699811247794e-6
H    -2.665951639345781 -2.053639220301119 -1.1093530759366035 -0.0004440036154531257 -0.00019824644615062806 0.00021739896630481104
H    -2.6002259276717368 -2.5546525475127497 0.26687242207114437 -0.0004129994709759725 8.46218854472089e-5 -0.00018707006710502093
O    -2.646303638414794 1.150535183236941 -0.8507075540307342 -3.2221219956091944e-5 3.639652961516096e-5 4.282856295391632e-5
H    -2.429613946047348 1.91732557541584 -0.3454571452118792 4.143465988285144e-5 -0.0005136068107198078 -0.0004025608490967825
H    -3.474198061785725 0.9171960998259786 -0.46118569145354926 0.00040164949424020444 -4.256448856729256e-5 -0.0004182048085854671
O    0.33195722792191296 0.18549464068029872 1.140491022753498 -3.2426471993251365e-5 -6.832259914246623e-5 1.375488859436866e-5
H    0.5796530067821549 -0.690524810558658 0.9091134982228936 0.00015508172915663684 0.0006893490122483682 0.00011093406013494022
H    -0.5360319296738021 0.033998725746308564 1.4954020283280443 0.0004595306645438967 0.0003639824976054484 -0.0001580430247694201
O    1.1621723666032806 1.1934098301441634 -1.3432617438979906 3.88974577131498e-6 -5.4243209865193985e-5 1.1179116210032465e-5
H    1.768390777529035 0.5411027072381449 -1.6306215374185142 -0.00017278543947762357 0.00046892965945757506 2.1622452142810487e-5
H    0.7359632784927783 0.7687396037433041 -0.6135930801151877 0.00012763113420151284 0.00038490895354404895 -0.00035816082449110945
O    0.5856444360568881 -2.04961925018762 -0.3790448161123853 -1.9214610917597163e-5 -3.2254231400694504e-5 -4.514130134865757e-5
H    0.8260250336825394 -2.851345853109113 -0.7908085438946512 4.5707795688915893e-5 0.0004089486993083877 0.0003327810029225839
H    -0.08792516546422344 -1.7090272584692199 -0.9566645936577758 0.000398451714317191 -5.168375963446662e-5 0.0003482131657933049
O    -2.1400110500991554 3.154316994341182 0.9428218085596667 3.659456414202129e-5 3.9246053894827264e-5 3.271436490206876e-5
H    -1.1852178115880072 3.1956218641699596 0.856041909492583 -0.000445640934657017 -0.0001631762593325719 -0.00010347554138587249
H    -2.285926645167971 3.7051577933529987 1.6846672628890258 -0.0002054163504270245 -0.0003586347780296569 -0.0003444024275672924
O    -4.6248452211698305 -0.26834722173586245 0.474493657304136 -4.3395791171038365e-5 -5.086929826679219e-5 -2.1494733840154528e-5
H    -4.320523884668384 -1.0880693846654605 0.09667607684341838 7.861630302537181e-5 0.0005416582492988096 0.00024127281445982286
H    -5.558414314523481 -0.3379526004307362 0.3931326023359168 0.0003880862921537956 0.00028384768861795286 0.00018008586023492395
O    -2.191221876124997 -0.5369839600870765 1.9756962752093832 -5.6325254908232326e-5 9.559371303635922e-6 1.2443060518345187e-5
H    -2.9012222388840265 -0.23264296334045667 1.4332832856451945 0.00046407360751610406 -0.00016196462532243696 0.00022591014583600748
H    -2.600854869971951 -0.5724516089250509 2.822077243028465 0.0003499100717447779 -2.3989258624546943e-5 -0.0002839450601458349
O    0.5319802254518843 2.946770393341326 0.7720983582902036 3.0641441220796044e-5 -4.7157322706358356e-5 -2.127082170141948e-5
H    0.874034939590521 2.80300916511559 -0.09623214657472644 -0.00019357435510049056 0.0002821986621120644 0.0004389720792911711
H    0.640769619584204 2.0887565607875187 1.1400640386011829 -8.826535681925952e-5 0.0006481257979642489 -3.621825107476376e-5
30
i = 2; t = 125.0; V = -760.220081585449; K = 0.018230307198097394; qed-freq = 0.5; qed-pol = [0.0, 1.0, 0.0]; qed-coup = 0.1; basis = cc-pvdz; Δt = 25.0
O    -1.3687868767269535 -0.9208851212529174 -1.9113783248540008 -2.0223726264363237e-5 6.8193170865783e-5 -2.7624692983191554e-5
H    -1.725578923158336 -0.16451677936031067 -1.4579968375399532 0.0001771124606684249 -0.0005088542057140009 6.114212522854924e-5
H    -1.2640290277259054 -0.5793003878980376 -2.7687498746915544 0.00012355654266931 -0.0004928897036494921 0.00018434221052133975
O    -3.2244461186784195 -2.3823592410100702 -0.41814410914459965 5.072647200159526e-5 -5.790606171734968e-6 -5.183538119037722e-6
H    -2.677188874211269 -2.0585496378542563 -1.1046792140065504 -0.00042252754930814635 -0.0001777323588929167 0.00012008851298591584
H    -2.610495653992874 -2.55264815267768 0.26299530433472373 -0.0003761457558361612 6.735351309473971e-5 -9.074682596231002e-5
O    -2.647121788460419 1.1514570874650745 -0.8496491865714181 -3.105263341636745e-5 3.456258237188418e-5 3.800807162671739e-5
H    -2.4279127560940754 1.9050171600940293 -0.35538242380180823 0.00010823960164899872 -0.00041479678919196036 -0.0003537749383834671
H    -3.4648740560175173 0.915531834935216 -0.47194743147565543 0.00029523822746988133 -0.0001015599916290904 -0.0004177513433928512
O    0.3311277078114959 0.1837718301609231 1.1408687176281302 -3.1736979397790586e-5 -6.431427809798075e-5 1.6180713596259043e-5
H    0.5846245203033286 -0.673808063895634 0.9115839287514986 0.0002581371711923241 0.0005792791823322085 7.028118977074602e-5
H    -0.5250479172443193 0.04373953582563835 1.4917457595949482 0.00036811978847997416 0.00040126346278801164 -0.00011395194777877352
O    1.1622521325298372 1.1920477753339913 -1.343007011949592 1.9253686765618244e-6 -5.074227899169819e-5 7.540172621812458e-6
H    1.7649339917803046 0.5526998968362861 -1.6306673953553985 -7.15191218667444e-5 0.0004219672654622521 -3.9643100099582574e-5
H    0.7386325552253699 0.7785553541047768 -0.6220624688836552 6.295165970038308e-5 0.00037407962000129914 -0.0002783403406523198
O    0.5851562462312323 -2.050432914425797 -0.38016619608019697 -1.8351789124598346e-5 -3.079688812051981e-5 -4.0829772728832335e-5
H    0.8279151195291327 -2.8419806120826254 -0.7825680698543239 0.00011948788972817566 0.00029102661391444456 0.00030024134091458565
H    -0.07815659561404412 -1.7098376112360691 -0.9480847253407929 0.00034523567615543714 3.656145063430135e-6 0.0003054604257089496
O    -2.139062704188088 3.155324699989595 0.943633096652162 3.694233632504075e-5 3.909227458135384e-5 2.9636459500192137e-5
H    -1.1962744241272218 3.191215795914759 0.8530886160262959 -0.000397495471566088 -0.00018397497887468885 -0.00013321722196741448
H    -2.2919528875384048 3.69644232527807 1.6767749824856846 -0.0002818468542893303 -0.0003072083612035563 -0.00024554977442108874
O    -4.625968510361394 -0.26964795583907475 0.47395481659933725 -4.428341120803919e-5 -4.967643609161105e-5 -1.986441763186578e-5
H    -4.3178759352549445 -1.074625453043707 0.10264215984279022 0.0001449946345665128 0.00048501343573940773 0.00021358516894536429
H    -5.549518166743739 -0.33024427802092826 0.3979585647412253 0.0002765153313946609 0.0003255860231019309 0.00020013826592173948
O    -2.192639920566617 -0.5367568366266696 1.9760199125703832 -5.298613128650395e-5 7.533646998962269e-6 1.2961905348438623e-5
H    -2.8899329139549583 -0.2364277296042694 1.4382948384755085 0.000394304976849611 -0.0001213783435049812 0.00014206076926218683
H    -2.591891172234203 -0.5732045905477856 2.8158325582258157 0.0003463567611914098 -3.7764370029188943e-5 -0.00017533828200926493
O    0.5327706237025239 2.945621831477928 0.7715639744548733 3.073161004372459e-5 -4.0146443437783825e-5 -1.991926248625298e-5
H    0.8694291506393659 2.810584243305438 -0.0859714367921699 -0.00015380535777128048 0.00031386602127664645 0.0003303344954811965
H    0.6386235642937594 2.104477941019057 1.14008579908543 -7.43760969373431e-5 0.0005456119468869481 6.394608806554078e-5
30
i = 3; t = 150.0; V = -760.212846989061; K = 0.011506734691527912; qed-freq = 0.5; qed-pol = [0.0, 1.0, 0.0]; qed-coup = 0.1; basis = cc-pvdz; Δt = 25.0
O    -1.3693038750944981 -0.9192115086757119 -1.9120302122660389 -2.0284580362146014e-5 6.230701303327223e-5 -2.3593133317573404e-5
H    -1.7215078806212236 -0.1766182127975724 -1.4555119654783373 0.00013378369442497242 -0.0004229238674035183 0.00015076002623098668
H    -1.2603963141643941 -0.5915665561249421 -2.7662778946868207 0.00016888493590009788 -0.00047099630369047804 -1.5523216595031292e-5
O    -3.2232688489569115 -2.3825462239935824 -0.41827673775665647 4.044885025742768e-5 -9.596772136323093e-6 -5.059713551000589e-6
H    -2.687078016811188 -2.0625258382457647 -1.103348650287308 -0.00034303133325019165 -0.0001281863422988086 -3.9943361158646636e-5
H    -2.619033215463545 -2.551284871858013 0.2623350807730289 -0.0002835327769207206 3.669044492156681e-5 5.8819070951047054e-5
O    -2.647856270085612 1.152263312355535 -0.8488071504493983 -2.6105281027635243e-5 2.772589337974034e-5 2.6437118284061966e-5
H    -2.424201965964898 1.896585735956242 -0.3631458921310526 0.00019696901147020358 -0.00021823115130046756 -0.00023817462305963125
H    -3.459436150412231 0.9121181002445241 -0.48207325862319184 0.00010518565165665728 -0.00017747462098384998 -0.0003736011746876869
O    0.3303703789520234 0.18227892677539967 1.1413000584333108 -2.700038570248704e-5 -5.123431100176696e-5 1.8005903645063712e-5
H    0.5925598653417712 -0.6615608514420477 0.9126275577114309 0.000385690709322158 0.00035176450423774624 2.6175897002184744e-6
H    -0.5176259402498034 0.054061898885709135 1.4897044309391057 0.00018658221744135767 0.0004111659878755296 -3.4051806508142513e-5
O    1.1622686350371085 1.1908727161945785 -1.3428847352669 -8.306213648721126e-7 -4.042149348373965e-5 8.128318946479977e-7
H    1.7648148214356978 0.5622010705112575 -1.6326036924234935 8.175231688988877e-5 0.00031394349321340985 -0.00012281839546068624
H    0.7391108614777975 0.787443584743369 -0.6275100971478036 -4.0585709968419326e-5 0.00031616831382151204 -0.00012717643997205556
O    0.5847268466006581 -2.051159094593646 -0.3810863047488269 -1.4650483807090433e-5 -2.6171243876895228e-5 -2.999790410745403e-5
H    0.8319994281689482 -2.8367945224133906 -0.7757964768489218 0.0002151583851800386 9.38561617330154e-5 0.0002242673965737081
H    -0.07066338165645158 -1.7088444512160483 -0.9413915723723283 0.0002247777214835367 8.788691215924137e-5 0.00020335379124433956
O    -2.1381639332829034 3.156271608070249 0.9443036315346762 3.2766756480470954e-5 3.510530504054387e-5 2.232765097365767e-5
H    -1.2050925851663117 3.1864231152262246 0.8493810483942122 -0.0002720133609398593 -0.00019378784286459505 -0.00016221473008539987
H    -2.3000189878824373 3.6897973752928204 1.6723897741679714 -0.0003647267813236858 -0.00020472377050492237 -7.931396019051686e-5
O    -4.627059391730233 -0.27083104354044296 0.47350043642254275 -4.15815038636989e-5 -4.2057317625883786e-5 -1.5062624492080148e-5
H    -4.313274152940058 -1.0638187128784902 0.1073553352906866 0.0002309292522139099 0.00033948623133553825 0.0001450255921984479
H    -5.544588547953747 -0.3216732992756397 0.4031395156320038 8.727435174306524e-5 0.0003532243763459521 0.00020959775094813205
O    -2.193871182689322 -0.5366072777371285 1.9763443704768053 -4.250415871207291e-5 3.6263538882019383e-6 1.27395748509041e-5
H    -2.881506990041546 -0.23871188051570574 1.4403863241083037 0.0002469309627457224 -4.7282381234085464e-5 3.18552196311816e-6
H    -2.58353703191238 -0.5743398274265104 2.8133103289280017 0.00030702484797260314 -5.351955695195557e-5 -4.5362247573411344e-7
O    0.5335168059540706 2.9447630711694366 0.771102395165891 2.754379184702439e-5 -2.52043993906779e-5 -1.5836861617952528e-5
H    0.8663446717019571 2.818702466179422 -0.07971542180066661 -7.749629569558731e-5 0.0003266195887823791 0.00013419667627117122
H    0.6370508147373368 2.116037158131866 1.14326134300446 -4.407403839327487e-5 0.0003339038002673111 0.00020674783042178924
30
i = 4; t = 175.0; V = -760.210960787036; K = 0.009785418528796747; qed-freq = 0.5; qed-pol = [0.0, 1.0, 0.0]; qed-coup = 0.1; basis = cc-pvdz; Δt = 25.0
O    -1.369801105745061 -0.9177697706012539 -1.9125579815198794 -1.8777973935847714e-5 5.095524803775381e-5 -1.892776992572724e-5
H    -1.7188897384370874 -0.18566297273048663 -1.4504588362284039 6.648855011003895e-5 -0.00027527584308977075 0.00025829829050302307
H    -1.2555847809309006 -0.6028502030825615 -2.7695260355213063 0.00021402627502213798 -0.0004238665734581813 -0.00024516755485386784
O    -3.222423676165548 -2.382839079616886 -0.4183970948221497 2.5997872289435516e-5 -1.4027557450129693e-5 -4.2263025779354725e-6
H    -2.694340440873778 -2.064958954969197 -1.106676382064483 -0.00022625530718840302 -6.330425439054009e-5 -0.0002327756528692721
H    -2.62467229283891 -2.550813630431602 0.2659362578822761 -0.0001598396373108909 1.3125626063454023e-6 0.00023076233933589301
O    -2.648427052511801 1.1528433821340613 -0.848327330657215 -1.897207068788265e-5 1.7784386015838412e-5 1.0877022779009925e-5
H    -2.418064305520565 1.8941056025290057 -0.36729115495478987 0.00029186315788457716 3.083617808300067e-5 -8.278816240692136e-5
H    -3.4596147734346845 0.9066581038860235 -0.4906274902100398 -0.00012746702605829387 -0.0002562182512468413 -0.00030330957560310606
O    0.3297776885263715 0.18121011461083475 1.1417690128103835 -1.9343931647522855e-5 -3.293967503339418e-5 1.9178645106781404e-5
H    0.6039090557694364 -0.6562198386837467 0.9117148082365094 0.0005182278633471229 6.49642774196358e-5 -7.525564550093907e-5
H    -0.5157188063722514 0.06429783521941483 1.490043169269541 -4.765992448601036e-5 0.00039662688259661284 6.57139651305807e-5
O    1.1622106014615936 1.1900267006598042 -1.3429663703548596 -3.610172885664774e-6 -2.6388554950708365e-5 -8.102763359824414e-6
H    1.7690216076247989 0.5683970714969566 -1.6368083151284325 0.0002542934114958968 0.00017771116837382006 -0.0002103485072549853
H    0.7366032697269489 0.7943637697958524 -0.6284212908822581 -0.00016243376467902962 0.00022763237502414872 6.33529184946886e-5
O    0.5844237220408778 -2.051741476619642 -0.3816660912855697 -8.717572295745636e-6 -2.0617225552695745e-5 -1.5387883656397177e-5
H    0.8386730387881345 -2.8372878039959746 -0.7713547000256384 0.00031638730066547397 -0.00013246140874169287 0.00012817654670081488
H    -0.06691770953986727 -1.7054432656281069 -0.9379170357785758 6.324522880339096e-5 0.0001863659283983042 6.187459727930037e-5
O    -2.1374243663640637 3.157079965241622 0.9447494792008448 2.4800621838419017e-5 2.917365006336855e-5 1.3064658198545416e-5
H    -1.2098750921742147 3.1815264037715294 0.8449778795220259 -8.991937249564923e-5 -0.00019225464092834067 -0.00018611171071732666
H    -2.3101892266045887 3.6862061367528236 1.6728092844761588 -0.00044361956474461557 -8.139928646084429e-5 0.00011389079855958442
O    -4.6280475855545795 -0.27175082172036885 0.4732016853747332 -3.7216662582064346e-5 -2.9983444815201986e-5 -8.146768812083211e-6
H    -4.30632947264425 -1.05765114147693 0.10989343945271263 0.0003234493226914145 0.00013477708844444915 4.9140283725132785e-5
H    -5.545154449156586 -0.31258305920363066 0.4084384522886319 -0.0001358394025797247 0.00036773080895753814 0.0002113321281972072
O    -2.1947651285022207 -0.5365755189322596 1.9766568913129285 -2.8037291848685697e-5 -1.3540065753938092e-6 1.2255981643265207e-5
H    -2.877586365817672 -0.23879184866597367 1.4384541145736645 5.656629963815036e-5 4.4784249730561334e-5 -0.00015988793744727196
H    -2.5765399298355725 -0.5758805683953833 2.815809877102029 0.00024739103710708413 -6.857787083999108e-5 0.00020282998573011965
O    0.5341478132948752 2.9443616115083935 0.7707721313739757 2.2387959829614112e-5 -5.9178646366813454e-6 -1.009566861473298e-5
H    0.8655543358545865 2.826915222744557 -0.07926160297861133 1.9166821640371702e-5 0.000323643505979237 -0.00010522078809863298
H    0.6364198623740958 2.121173131032423 1.1504231906065194 -2.6037534476143362e-6 6.724787697130771e-5 0.00036513035051719656
