30
i = 817; t = 65260.0; V = -760.220709273244; K = 0.037761174323747114; qed-freq = 0.5; qed-pol = [0.0, 1.0, 0.0]; qed-coup = 0.1; basis = cc-pvdz; Î”t = 10.0
O    -1.2657589626018828 1.6995240688632027 -3.641939270118437 -3.525048180329143e-5 4.6554059567566146e-5 -9.489424363516942e-6
H    -1.5433208645504224 1.640770727794425 -2.7193990317348296 0.00046349567611040623 0.0002714805533979727 -0.00043096705005921885
H    -2.1418527458421415 1.5040954493376337 -3.9891870959944775 -0.00038721342719532227 -0.0001930903016742919 -0.0004538578118123439
O    -2.846451347575109 -2.7797596914271607 -0.30533910853585705 -4.961640158625948e-5 0.00016325330913140554 1.4189726137728201e-5
H    -2.2725391378873496 -2.4975714808106693 -0.9853187908226262 -5.5438750981640325e-5 0.00034598091794868746 6.353780019490636e-5
H    -2.3557413035579677 -2.8466595836426025 0.4632975576798331 0.0005716303619317017 -0.00047520575828032403 0.0008852253587789501
O    -1.572873529813504 1.0956630642232217 -0.7974857571524241 -1.5326939517948745e-5 3.304152697070616e-5 7.313652131795277e-5
H    -1.1659440997519512 1.654797175918164 -0.16040424438513637 0.00019696790459298 -0.0002329997066131749 -0.0009785052687933749
H    -2.417720115472118 0.8976666388165218 -0.4188144901152601 -3.9409024629658535e-7 0.0003387757414161419 -0.00014196250516154772
O    -1.2255574645135672 -2.220258830613279 1.9263928106943753 -0.0001568088760927018 3.365394337291682e-6 5.883043173419961e-5
H    -0.6666004274162818 -1.6962634807065526 1.3948304323444074 -0.00043342072600456127 -1.0240170777760182e-5 -2.764468884182122e-5
H    -1.53869730690925 -1.6022169219965288 2.557374805300609 -1.3599623373964977e-5 -0.0005480024808766232 -7.752474520360726e-5
O    1.8927056447459214 1.956975724001963 -3.1104407013753277 0.0001382647545276285 -0.00014700842126973073 -6.354868134092534e-5
H    2.4108227004174876 1.9603766274829997 -3.950902815911588 -0.00030133753438888085 7.105971679239619e-5 0.0003540495498101091
H    0.9209709396184941 2.0912911235197003 -3.419915054222776 0.00034773890913538156 -0.0005125426304619649 0.00035157697657035717
O    0.15743133448178914 -1.0418729589940396 0.037582373001670985 0.00011338083864474779 -6.397264627546327e-6 -4.541094458184405e-6
H    0.9275713714018342 -0.48656225356598576 -0.06354442552216308 -2.0245658534157693e-5 -0.0004344959328044036 -0.00019947075533210224
H    -0.4583446944844577 -0.5045838835862047 -0.45480345312854964 -0.00011338803685365585 0.0003348051608735135 -3.4807692492543086e-5
O    -0.5430057797730561 2.605372395465605 1.2744874954729506 -0.00011349290611567531 6.042487534840806e-6 3.513617672626634e-5
H    0.4016563164337935 2.4342343170234835 1.3868284901252135 -0.0005970790419834863 -0.00020391771740157724 -0.00013618781159458268
H    -1.0226922576691755 1.9687113220225088 1.8393556972543343 0.0006569285580967008 1.3640685730209159e-5 0.00021135041032751864
O    -4.299093947905689 -0.31644330197090087 0.7928485650381921 0.0001259745669016653 5.0791825430689835e-6 1.7291545284636704e-6
H    -3.931581697709522 -1.1310025931656003 0.42928861036224075 0.000331649247414955 -6.965979096050994e-5 0.0005493141760377334
H    -5.217639997998786 -0.47666315890582606 0.8065798812122383 0.0004462084557469015 -0.00022344210388927752 0.0002898847157875978
O    -2.4331827438842084 0.37950487213760425 2.7883069086595516 0.00010435309276846124 0.00010535512165240836 -0.00011449434251696784
H    -3.1055603689499893 0.10088951235696454 2.209196884786462 -0.00017643172258006683 1.0272731922173137e-5 0.0003944594861200484
H    -2.8612729241014687 0.5458192871366502 3.606327642461924 -0.00024378361445611006 8.131836987304037e-5 -0.00021694318450190978
O    2.4807544092740375 0.7236248216465668 -0.16032176951193822 9.58551318913385e-6 -8.349056787929086e-5 -0.00013481134118301682
H    2.4887742204432692 0.9377058519143078 -1.0753146278353038 -0.0004278674767173247 -0.0002342509981085217 -1.7806804306885635e-5
H    3.3599950284479347 0.42672984283322674 0.02886901107126522 -0.00023717668096316316 -0.00016512679346996625 0.0008036190008390029
