90
i = 0; t = 0.0; V = -2280.671969374028; K = 0.0; qed-freq = 0.5; qed-pol = [0, 1, 0]; qed-coup = 0.1; basis = cc-pvdz; Î”t = 40.0
O    -5.93743 -0.45233 1.48921 0.0 0.0 0.0 -6.744754626271746e-7 1.0715199408633417e-6 -1.2732964621940968e-6
H    -6.33336 -0.78457 0.64673 0.0 0.0 0.0 7.052844472347095e-6 2.3179085038249558e-6 1.672641783875164e-5
H    -5.86642 0.50401 1.27179 0.0 0.0 0.0 -2.030104127730876e-7 -1.953365132903115e-5 7.33137138317523e-6
O    0.18981 -2.68496 -0.54076 0.0 0.0 0.0 1.0546005835633552e-6 1.184655439552118e-6 -1.0224882538269991e-6
H    0.9126 -2.82305 -1.19111 0.0 0.0 0.0 -1.2159719555896454e-5 -1.3086324755144573e-6 1.2617196711943556e-5
H    0.14421 -1.69898 -0.59281 0.0 0.0 0.0 -3.046933612656752e-6 -1.868763587711386e-5 3.0961552882181115e-6
O    2.10831 -1.57333 -2.43 0.0 0.0 0.0 7.101470704204825e-7 1.3283966217993981e-6 9.479020174270389e-7
H    3.03709 -1.35744 -2.22835 0.0 0.0 0.0 -1.2890519422186073e-5 -7.440096227629616e-6 -6.265179345637135e-6
H    1.64693 -0.84724 -1.93708 0.0 0.0 0.0 5.133215777829866e-6 -1.3844088553839652e-5 -7.996645788333744e-6
O    1.6126500000000001 3.30699 1.21524 0.0 0.0 0.0 5.687669391327121e-7 -4.16050232826078e-7 1.7335662311896058e-6
H    2.20104 3.84719 1.802 0.0 0.0 0.0 -9.058303268484963e-6 -7.667935070046166e-6 -1.4875127929788921e-5
H    1.39949 2.5882 1.8542399999999999 0.0 0.0 0.0 1.1936881233361322e-6 1.2489581628488323e-5 -1.615662753781226e-5
O    -2.09708 3.92455 0.81232 0.0 0.0 0.0 5.213038924835784e-8 1.1004703015908366e-6 -1.631397305243138e-6
H    -1.36901 4.39917 0.34831000000000006 0.0 0.0 0.0 -8.884501958238125e-6 -8.72603305080651e-6 1.2278930223840648e-5
H    -2.82124 4.04535 0.15494 0.0 0.0 0.0 9.305018439078331e-6 -4.044096264807196e-6 1.4253928358741019e-5
O    -4.78235 1.89763 0.49696 0.0 0.0 0.0 8.07309574166223e-7 2.348224542095666e-7 -1.4863378675487138e-6
H    -4.19934 1.2113499999999997 0.09897 0.0 0.0 0.0 -9.856579858636195e-6 1.0198562201677213e-5 9.931950224337705e-6
H    -4.64347 2.62676 -0.15111 0.0 0.0 0.0 -5.969667939689078e-6 -1.396611192141328e-5 1.4137479136885363e-5
O    0.46282 0.02733 -1.04517 0.0 0.0 0.0 -1.1142996799118368e-6 1.4155596347056275e-6 3.338841235794796e-7
H    -0.22312 0.40597 -1.65012 0.0 0.0 0.0 1.1906736756922292e-5 -8.877032064924126e-6 6.0099261258272594e-6
H    0.25116 0.59013 -0.25849 0.0 0.0 0.0 7.61612178121893e-6 -1.1828445899380554e-5 -1.1943625235930421e-5
O    -2.85437 0.02112 -0.32849 0.0 0.0 0.0 1.4295370704331636e-6 1.0562101269758282e-6 -4.0544561207776666e-7
H    -2.48762 0.36424 -1.18662 0.0 0.0 0.0 -1.0762326180259827e-5 -8.5180986212334e-6 1.0828235727811818e-5
H    -2.13366 0.3981 0.24432 0.0 0.0 0.0 -1.3913149250798405e-5 -8.531680987850464e-6 -3.5952836582594686e-6
O    -2.38647 -3.66198 -0.86503 0.0 0.0 0.0 1.1367497289925698e-6 -4.0713727984586384e-7 1.277208155422122e-6
H    -1.4331 -3.4183399999999997 -0.80345 0.0 0.0 0.0 -1.655773781925727e-5 -2.18219028769155e-6 -6.437458974180574e-6
H    -2.52278 -4.00402 0.04889 0.0 0.0 0.0 -3.4632165280860416e-6 5.741779611612276e-6 -1.7184898283565407e-5
O    0.22713 4.5561 -0.69464 0.0 0.0 0.0 1.4636039896659869e-6 3.602605229980707e-7 7.130799975982091e-7
H    0.71051 3.92928 -0.08857 0.0 0.0 0.0 -8.771313982125188e-6 7.182366038640009e-6 -7.743758809182855e-6
H    0.85499 5.30166 -0.64343 0.0 0.0 0.0 -1.3433304829366701e-5 -1.1394317508236665e-5 -3.6629110142001243e-6
O    -2.10318 1.4756 5.00578 0.0 0.0 0.0 -8.363381086814318e-7 -7.223537362601673e-7 -1.3880486155520342e-6
H    -1.96415 0.6139 4.54864 0.0 0.0 0.0 1.6920826954595803e-6 1.7027296526392397e-5 1.3270604666005507e-5
H    -2.69473 1.90638 4.33587 0.0 0.0 0.0 1.0413147433339168e-5 -4.458547562198274e-6 1.3226431467866869e-5
O    -3.3828 2.53497 2.86574 0.0 0.0 0.0 -3.516100806771964e-7 7.318534494238746e-7 -1.5792396759403536e-6
H    -2.89897 3.18772 2.30972 0.0 0.0 0.0 -6.659696254028339e-6 -1.3418820107047972e-5 1.478819570744015e-5
H    -4.07374 2.26332 2.21981 0.0 0.0 0.0 1.1162036488716465e-5 2.7833307283674503e-6 1.2865643959142058e-5
O    -0.24624 -2.89308 2.21954 0.0 0.0 0.0 -3.95327845906086e-7 -1.1643125736388411e-6 -1.3169907632412654e-6
H    -0.98497 -3.53818 2.14524 0.0 0.0 0.0 1.2383793809904423e-5 1.31994151953808e-5 6.399124537645188e-6
H    0.07551 -2.9036 1.28987 0.0 0.0 0.0 -1.7983536518859472e-6 3.1685008066353158e-6 1.7307400860416288e-5
O    -1.28985 0.34034 -5.07654 0.0 0.0 0.0 -2.0172513842750384e-7 -2.053004506131007e-6 -1.626606996641777e-7
H    -0.59703 -0.37133 -5.05062 0.0 0.0 0.0 -8.80995280694828e-6 1.7137427953300125e-5 4.925823210383922e-7
H    -2.0876 -0.24967 -5.12385 0.0 0.0 0.0 1.0516683626108075e-5 1.5859084626938685e-5 1.1697940143708718e-7
O    -1.58925 3.81289 -2.66533 0.0 0.0 0.0 1.7881243692692327e-6 5.240829566955302e-7 -5.796542104214744e-7
H    -1.14813 3.76306 -3.55321 0.0 0.0 0.0 -1.2643362847126096e-5 -3.53013757804611e-7 1.1976662325851304e-5
H    -0.83173 4.12718 -2.11049 0.0 0.0 0.0 -1.4944146278526904e-5 -6.260841477301198e-6 -4.1959998274979356e-6
O    0.49701 -1.66282 -4.68154 0.0 0.0 0.0 9.216005263781498e-7 -1.4764454786211515e-6 7.25140306015361e-7
H    1.12643 -1.61851 -3.9231 0.0 0.0 0.0 -9.583622856334292e-6 2.741896218551317e-6 -1.331472838495581e-5
H    0.49487 -2.62052 -4.85238 0.0 0.0 0.0 -3.198669655185747e-6 1.906985851153193e-5 -3.5508728966238495e-7
O    -1.63923 1.05824 -2.44603 0.0 0.0 0.0 -5.330644374568413e-8 1.261557945003126e-6 -1.5187730763012387e-6
H    -1.59428 0.82083 -3.40431 0.0 0.0 0.0 1.772150686255598e-7 -3.1727498402224466e-6 1.4579175435877899e-5
H    -1.69041 2.04027 -2.53198 0.0 0.0 0.0 1.7832048493307893e-6 -1.7959737184949706e-5 8.044984251556555e-6
O    -1.24376 -0.70665 3.4669 0.0 0.0 0.0 -3.4125249235174144e-7 -1.6772849624063955e-6 -8.986210989548332e-7
H    -0.71727 -1.49603 3.17687 0.0 0.0 0.0 -6.4067930436916436e-6 1.6415515122765317e-5 6.904649517460101e-6
H    -2.09139 -0.95058 3.02136 0.0 0.0 0.0 1.2204978117702388e-5 9.923063528951017e-6 8.212146643049287e-6
O    -0.91642 1.42189 0.8462 0.0 0.0 0.0 3.1954341148907587e-7 1.4603714023076807e-6 1.317728517891236e-6
H    -0.4421 1.42241 1.71297 0.0 0.0 0.0 -8.266629657293719e-6 -4.359992353210158e-6 -1.3211969205236539e-5
H    -1.29393 2.33391 0.89468 0.0 0.0 0.0 3.1727934997781363e-6 -1.853849289940633e-5 -6.362486871826369e-6
O    -3.9106799999999997 3.86996 -1.31076 0.0 0.0 0.0 8.208956052404079e-8 8.241988398076385e-7 -1.6881044649591321e-6
H    -3.12908 3.82035 -1.9203 0.0 0.0 0.0 -1.062809877523321e-5 -1.111910358530017e-6 1.1515680142412226e-5
H    -4.511729999999999 4.41223 -1.85467 0.0 0.0 0.0 6.48842201890551e-6 -9.538054029609905e-6 1.2560030137296885e-5
O    0.56486 1.44073 3.16534 0.0 0.0 0.0 -3.7370001384193943e-7 -7.076885129332396e-7 1.7229081143826152e-6
H    0.6157099999999999 1.88105 4.04356 0.0 0.0 0.0 -1.2802542451434277e-7 -5.725804219524306e-6 -1.65405564161655e-5
H    0.0999 0.61148 3.43745 0.0 0.0 0.0 7.430665384666783e-6 1.5586774359911824e-5 -1.0135196445064106e-5
O    -0.56388 2.98048 -5.02626 0.0 0.0 0.0 3.0343175772276615e-7 -1.2319024591034794e-6 -1.3416762829535234e-6
H    -0.07373999999999999 3.10221 -5.85785 0.0 0.0 0.0 -6.73878366905567e-6 2.405605156411453e-6 1.4347087788770069e-5
H    -0.85023 2.0387 -5.1324 0.0 0.0 0.0 3.0858755111726556e-6 1.896445052520992e-5 4.364411575641166e-6
O    -3.37871 -1.33658 -4.63868 0.0 0.0 0.0 -1.1170719802835818e-6 -1.1873762443715231e-6 5.62789498134626e-7
H    -3.59947 -1.46187 -3.6841 0.0 0.0 0.0 5.714141915902302e-6 3.894825939418421e-6 -1.2485753038284357e-5
H    -3.95215 -2.01499 -5.03474 0.0 0.0 0.0 1.0617278078520744e-5 1.3843059831660278e-5 2.2940902156702266e-6
O    -3.53778 -1.47344 1.99952 0.0 0.0 0.0 -9.430738223327444e-7 1.0942517949646739e-6 -9.582567146610267e-7
H    -3.3795 -1.03013 1.13259 0.0 0.0 0.0 1.128745627915078e-6 -1.2139419424135942e-5 1.5562095651634797e-5
H    -4.48153 -1.17997 2.11183 0.0 0.0 0.0 1.3696626584928632e-5 -6.272396317412011e-6 2.01614809557959e-7
O    -6.57844 -1.32973 -1.02181 0.0 0.0 0.0 8.769434335344828e-8 -8.502032147732748e-7 -1.485966892036124e-6
H    -5.73877 -1.59307 -1.46496 0.0 0.0 0.0 -1.0592527637346542e-5 4.818648779535556e-6 9.464469668079222e-6
H    -7.23772 -1.67235 -1.64777 0.0 0.0 0.0 6.938724400631711e-6 7.5000705804539165e-6 1.212169118959738e-5
O    -2.74366 -4.04384 1.86023 0.0 0.0 0.0 -1.36482914202699e-6 3.850410495758892e-7 1.0825453829422446e-6
H    -3.35882 -4.53649 2.43367 0.0 0.0 0.0 1.2125465737029958e-5 4.845230264930177e-6 -1.0394162282410756e-5
H    -3.09102 -3.12224 1.98414 0.0 0.0 0.0 7.411051750020695e-6 -1.407685614588461e-5 -5.543424400110391e-6
O    0.18475 2.3912900000000006 5.88571 0.0 0.0 0.0 -9.34090009339905e-7 -1.1751506457540853e-6 9.304884285113034e-7
H    0.25474 1.77621 6.63998 0.0 0.0 0.0 4.312329467045661e-6 1.2918987070954694e-5 -1.1844468817820345e-5
H    -0.76125 2.2066 5.63202 0.0 0.0 0.0 1.0896422845724076e-5 3.540713112832849e-6 -2.284362541028958e-6
O    2.96907 4.66899 3.10565 0.0 0.0 0.0 3.7073242672081154e-7 5.743902470879409e-7 1.5988999955044712e-6
H    3.79723 4.9226 3.54747 0.0 0.0 0.0 -1.0244233842107259e-5 -5.677318137304775e-6 -1.089834096249973e-5
H    2.3431 4.73978 3.87085 0.0 0.0 0.0 6.646142808629331e-6 -9.597099806273127e-7 -1.4583632113559606e-5
O    1.38071 4.73472 5.26948 0.0 0.0 0.0 -1.3668762081803417e-6 -4.804202343368683e-7 9.95764319717412e-7
H    0.6931 5.29535 5.66964 0.0 0.0 0.0 1.280193761078896e-5 -6.856818480426738e-6 -8.458913165751654e-6
H    1.03171 3.84138 5.51416 0.0 0.0 0.0 8.946063567069652e-6 1.6746314637023096e-5 -4.527901246161968e-6
O    -4.04443 -1.92427 -2.0065 0.0 0.0 0.0 1.0831082704770388e-6 -8.285313451950495e-8 1.1400471846893753e-6
H    -3.53588 -2.73132 -1.72367 0.0 0.0 0.0 -8.989812874771488e-6 1.2243665741885611e-5 -5.444606728315685e-6
H    -3.65224 -1.29813 -1.35189 0.0 0.0 0.0 -8.859375173222229e-6 -1.0615921385466322e-5 -1.3371899131153388e-5
90
i = 1; t = 40.0; V = -2280.699392107627; K = 0.024758196993983166; qed-freq = 0.5; qed-pol = [0, 1, 0]; qed-coup = 0.1; basis = cc-pvdz; Î”t = 40.0
O    -5.937715533635318 -0.45187638085299897 1.4886709604235693 -1.35006942738663e-5 2.054062125955915e-5 -2.428434127495516e-5 -6.011552708351292e-7 8.692874896008922e-7 -1.0212412440589016e-6
H    -6.330374236346457 -0.7835887325142225 0.6538109913124746 0.00013318673474872885 3.642122672329114e-5 0.0003208396561431325 5.531478132654667e-6 1.1233986775755287e-6 1.3588536161759626e-5
H    -5.866505942787215 0.4957405894964956 1.2748936757286138 -1.4110849697789122e-6 -0.00036581104046764883 0.00014493757352952307 6.968220619672251e-8 -1.5030482662256036e-5 6.363244573319057e-6
O    0.19025645647635572 -2.6844584858708767 -0.5411928619858869 2.0535298353087806e-5 2.2915900985305528e-5 -1.9820998749629515e-5 8.857039051072908e-7 9.805833984567493e-7 -8.503247037764956e-7
H    0.907452282815873 -2.8236039987868096 -1.1857686136274754 -0.0002273510310891796 -3.358048065671922e-5 0.00023978340972099553 -9.321839588912609e-6 -1.864263103093282e-6 1.0039051967412929e-5
H    0.14292010573519673 -1.7068912568257115 -0.5914992681440044 -6.591496386317049e-5 -0.0003557911953888708 6.361993331426291e-5 -3.1811278479507617e-6 -1.4929759963700255e-5 2.915057213138195e-6
O    2.1086106349168543 -1.5727676342245445 -2.429598713483354 1.3714208592286714e-5 2.5951919499678115e-5 1.8461394598160454e-5 5.856578423007103e-7 1.1237043912731235e-6 7.964469659791883e-7
H    3.031632904707886 -1.3605897034965708 -2.23100231210563 -0.00023649890652671404 -0.00014825049900287244 -0.00012401322976205852 -9.455388682551785e-6 -6.567545819632157e-6 -5.452372658011615e-6
H    1.6491031046466902 -0.8531007809349203 -1.9404653141719883 9.412996090019575e-5 -0.00026817159546898813 -0.00015253265216746956 3.760776533031769e-6 -1.1494454937347407e-5 -6.415601094165575e-6
O    1.612890782802011 3.306813868558552 1.215973890994533 1.1211908708191295e-5 -8.028686520661183e-6 3.343028793416155e-5 4.906049004649187e-7 -3.4255070036080004e-7 1.4251381918600782e-6
H    2.197205241872572 3.8439438428048938 1.7957027370320289 -0.00016903589004583808 -0.00014163992085969063 -0.00029144129841172505 -6.913273601959163e-6 -5.715097866433132e-6 -1.2662083839497202e-5
H    1.399995338041452 2.593487361577377 1.8474002247213337 1.5798347821920825e-5 0.00023074276087759287 -0.00031171596463121817 2.9903940685858444e-7 9.312449535759459e-6 -1.3296262552564506e-5
O    -2.097057931028811 3.925015875043917 0.8116293613792872 1.0735616132856862e-6 2.1768414468296637e-5 -3.1706375604090525e-5 4.93064820917014e-8 9.563467739791368e-7 -1.3644210094691511e-6
H    -1.372771180773339 4.395475905734224 0.35350818403914663 -0.00016187162219767674 -0.0001661465385870584 0.00024106135020213773 -6.410149706403402e-6 -6.9725396728795985e-6 1.0498066331158519e-5
H    -2.8173007970358794 4.043637965134318 0.16097428324282567 0.00016993376983450665 -7.99376056191563e-5 0.0002757552606719033 6.751395776018593e-6 -3.5089128188627684e-6 1.1801167645160015e-5
O    -4.782008232136955 1.8977294101531041 0.49633077109821266 1.531374332572263e-5 4.417393162224997e-6 -2.8590706560559608e-5 6.396294672011227e-7 1.8256070886197817e-7 -1.2150923878106252e-6
H    -4.203512701951043 1.2156674773610219 0.10317460937496904 -0.00018699391912892384 0.00018943899492745073 0.00019456093662953788 -7.811784847008248e-6 7.70082868462534e-6 8.451394014100377e-6
H    -4.645997209784354 2.620847561476824 -0.14512501457672267 -0.0001196549468176777 -0.0002599445167848405 0.0002686541962558172 -5.336086007059104e-6 -1.0595085293859472e-5 1.1246663520050814e-5
O    0.4623482704026042 0.027929265519507567 -1.045028652904571 -2.166951157091419e-5 2.784653500356006e-5 6.3958312725105124e-6 -9.331724262019849e-7 1.2155565990514793e-6 2.704343486230076e-7
H    -0.21807938100145058 0.4022119815445089 -1.6475757472439194 0.00022997551202949188 -0.00017516583537549422 0.00010889779029066974 9.82279989768783e-6 -7.673740697077626e-6 4.2794238351608696e-6
H    0.25438422246577 0.5851225247915582 -0.2635462354324987 0.0001531731699059667 -0.00022915441904690435 -0.00022336090428218717 6.856645256460732e-6 -9.823508712227722e-6 -9.160921565492021e-6
O    -2.853764817248129 0.021567137863310822 -0.3286616420625433 2.8091209496429955e-5 2.0817989689788297e-5 -7.888597607826577e-6 1.2246975523607788e-6 9.10804821925087e-7 -3.399188372029788e-7
H    -2.4921761422008655 0.36063393306341934 -1.1820359555346978 -0.00021473910214174334 -0.00016877271312985517 0.00020334972811707143 -9.5275783838928e-6 -7.428611634512246e-6 8.385528954493625e-6
H    -2.1395500172125206 0.3944881830803121 0.2427979662570048 -0.00027255535168562545 -0.00016929225300801027 -6.114597919327585e-5 -1.1839599172726574e-5 -7.464118671920334e-6 -2.182174056418964e-6
O    -2.385988766359118 -3.6621523582161677 -0.8644893044404395 2.205317817415695e-5 -8.258452470407095e-6 2.455035147858103e-5 9.469736172693017e-7 -3.731733892295318e-7 1.0424638723981523e-6
H    -1.4401095820146714 -3.41926381229611 -0.806175245268295 -0.0003141709062028342 -3.844769794797986e-5 -0.00013187767914813126 -1.3127110632239253e-5 -1.450590674377691e-6 -6.023175802477241e-6
H    -2.5242461242105154 -4.001589264863528 0.04161491476508718 -7.62055556551932e-5 0.00010744993743301134 -0.0003270607377677401 -3.7371649398524764e-6 4.410768080904831e-6 -1.3717862740391842e-5
O    0.2277496047017143 4.556252513327012 -0.6943381234525665 2.8465552579116097e-5 6.4916825670519e-6 1.4025824312127366e-5 1.2260009282730667e-6 2.531145839839697e-7 6.121683334649558e-7
H    0.7067967364246683 3.932320595542507 -0.09184825655094446 -0.000174046935815808 0.00013643035730204935 -0.00015033915404571082 -7.673738093464107e-6 5.708434480246373e-6 -6.461232538072868e-6
H    0.8493031209735661 5.296836309472523 -0.6449806632274739 -0.000255989415230787 -0.00020707933186552067 -7.535934511036714e-5 -1.0754189449328628e-5 -8.171843655936009e-6 -3.457515145054812e-6
O    -2.1035340568541905 1.4752941974916387 5.005192381044001 -1.67819674209334e-5 -1.3677686492771271e-5 -2.6595951419960274e-5 -7.493280041731979e-7 -5.700003381748976e-7 -1.1249045947422537e-6
H    -1.9634336707188567 0.6211083658282752 4.554258001251503 4.12714864461803e-5 0.00031861046402155706 0.0002584061466614511 2.207507611381659e-6 1.3077029344689217e-5 1.1145237638715061e-5
H    -2.6903216797474614 1.9044925105890254 4.3414693008916725 0.00019857245322034715 -7.969496066708695e-5 0.0002566693329739582 8.349230190126266e-6 -3.071534896225728e-6 1.1025305726915826e-5
O    -3.3829488512334596 2.535279824133734 2.8650714418823293 -7.156649584895358e-6 1.4152482360898604e-5 -3.0190789446829398e-5 -3.245953035772763e-7 6.053623328329037e-7 -1.273376501001659e-6
H    -2.901789327591425 3.182039252961532 2.315980460927202 -0.0001175364785623038 -0.0002520581065885635 0.00028550149230151256 -4.445891452407752e-6 -1.0397219339377733e-5 1.2187785722787633e-5
H    -4.069014643730171 2.264498300153525 2.2252565644695905 0.00020844256282971164 4.836720527000088e-5 0.00024757637594469915 8.532931333805805e-6 1.7867078401935926e-6 1.0526933313253719e-5
O    -0.24640735878951647 -2.8935729021442858 2.2189824628008803 -7.1752869533145585e-6 -2.276305865026843e-5 -2.5358906893202787e-5 -2.8263851444813205e-7 -9.864847566671447e-7 -1.0790786790798301e-6
H    -0.9797274228248531 -3.532592136224907 2.1479490167001285 0.00023104615395358718 0.0002506714900192642 0.00013068924319584735 9.446903845406574e-6 1.0485607973286853e-5 5.949219315700106e-6
H    0.07474868178419776 -2.9022586412642775 1.2971969456924717 -2.6269589275783892e-5 6.50587339070832e-5 0.00032971910920102547 -6.837628049239526e-7 2.978658648146743e-6 1.3846539860862446e-5
O    -1.2899353986769002 0.3394708774411515 -5.0766088610683 -4.0451150814048525e-6 -4.024463515820596e-5 -3.4157175576550807e-6 -1.8048284389038952e-7 -1.7495624154565998e-6 -1.600778354738198e-7
H    -0.6007596210037741 -0.3640750109386641 -5.050411469328964 -0.00016140132568740438 0.00033452808498820344 1.0400002860047745e-5 -6.440262277605571e-6 1.4470895126861306e-5 4.900755339746083e-7
H    -2.083147848552487 -0.2429561870634979 -5.12380047773329 0.0001943689087909601 0.00031225605618147724 2.6560683049922957e-7 7.848516611158229e-6 1.3644836719065936e-5 -9.188319311040003e-8
O    -1.5884930122667937 3.8131118662058516 -2.665575391838695 3.513288844980681e-5 1.052789183822386e-5 -1.1477066522483979e-5 1.5314524874745201e-6 4.706586554837782e-7 -5.04771411620157e-7
H    -1.1534824635904735 3.7629105545313823 -3.5481397785874207 -0.0002506492188183831 -8.157344260822083e-6 0.00022511480052412618 -1.1039555998027814e-5 -4.177435700177447e-7 9.293603652987213e-6
H    -0.8380564813178011 4.124529524295223 -2.112266341988589 -0.0002895836057895064 -0.00012129037295160889 -7.247459299942835e-5 -1.2417538976789875e-5 -5.199437843928583e-6 -2.6518567604102365e-6
O    0.497400151996905 -1.6634450410403616 -4.6812330178202695 1.8051096507390167e-5 -2.828924271397774e-5 1.4159558892761274e-5 7.839809059671179e-7 -1.1965005714021648e-6 6.127441115868863e-7
H    1.1223728521491005 -1.6173492408051477 -3.9287366806647266 -0.0001804908696668607 5.833909695051948e-5 -0.00025469953634708436 -7.4702927264201745e-6 2.7703495610101755e-6 -1.075089000252506e-5
H    0.49351586953057147 -2.6124469323681825 -4.852530323281261 -6.718029026034715e-5 0.0003556534339978815 -1.54746449899086e-5 -3.1489478228640914e-6 1.4534520764336668e-5 -1.1070547556238002e-6
O    -1.6392525668441804 1.0587740701718005 -2.44667296008043 -1.0972032319288966e-6 2.4437757910526758e-5 -3.0130942327672905e-5 -5.036423682872813e-8 1.0474755324777822e-6 -1.328188367413275e-6
H    -1.5942049774594014 0.8194868424708833 -3.398138026084263 4.5893692286333335e-6 -7.004973476560324e-5 0.00028177315145531945 2.564174776978615e-7 -3.4459908500332848e-6 1.2044528839433172e-5
H    -1.6896550949050657 2.0326668930940897 -2.528574222137493 3.5117843653921336e-5 -0.00034026030580713813 0.00016399035397117725 1.5349504802217876e-6 -1.4190202266847627e-5 7.449858552247543e-6
O    -1.2439044664336978 -0.7073600647826594 3.466519576154545 -6.591167039056425e-6 -3.290464722843082e-5 -1.732555754928898e-5 -2.8152253490986165e-7 -1.4317536119367957e-6 -7.384068372186865e-7
H    -0.7199822630990419 -1.489080626793216 3.1797930265392234 -0.00011536635024646202 0.00031685746458738184 0.00013579444778382674 -4.493747254139218e-6 1.352317630696087e-5 5.926066259942896e-6
H    -2.0862231229762678 -0.9463791527343741 3.0248365446849883 0.0002278945899841081 0.0001996651888798068 0.00015822025603822088 9.32793989929048e-6 8.942562650683365e-6 6.737500920494486e-6
O    -0.9162847239269923 1.4225082362124644 0.8467578495214779 6.640033612128646e-6 2.8535426358123554e-5 2.5931793512618382e-5 3.078488377446554e-7 1.2358356309347084e-6 1.1324708649936725e-6
H    -0.4455996096206042 1.4205642331255166 1.7073768215881697 -0.00015865313026252023 -9.077371372400352e-5 -0.00025140021569211525 -6.723918592769445e-6 -4.216880559176858e-6 -1.0541908560493719e-5
H    -1.2925868239879696 2.3260618816262655 0.8919864935541214 5.3101912637408075e-5 -0.0003549534127960814 -0.0001308959442437284 1.844610078978196e-6 -1.4999743958792784e-5 -6.005387400019074e-6
O    -3.910645248060253 3.870308917794634 -1.311474645130007 1.7621119103818802e-6 1.602862600504353e-5 -3.297796857542872e-5 8.440588504100406e-8 6.902868253380079e-7 -1.4278619726407125e-6
H    -3.1335793181338083 3.8198792819021437 -1.9154249316003131 -0.0002012872286622665 -2.4759425498261995e-5 0.00022410034737236755 -8.390787951993852e-6 -1.2275163011194215e-6 9.65873390527501e-6
H    -4.50898317994621 4.408192143336805 -1.8493528146262992 0.00011241985921348155 -0.00017877553558095412 0.00024214578211788167 4.133715224868859e-6 -7.353785971397123e-6 1.0319430383776952e-5
O    0.5647017971751634 1.440430405893221 3.1660693789685124 -6.852194788057223e-6 -1.3858080876568795e-5 3.348913879355606e-5 -2.737385612458247e-7 -6.017103604911751e-7 1.4413569089896143e-6
H    0.6156558014903429 1.8786260279142708 4.036557691590903 3.5445988826661445e-7 -0.00010283191640314662 -0.0003143745072544804 1.6151703005498496e-7 -3.9904037237665665e-6 -1.3163529546633684e-5
H    0.10304571102683022 0.618078532626414 3.4331593480104603 0.00013849536895088857 0.00029427181733356517 -0.0002016628202896491 5.65525045721402e-6 1.221788268702693e-5 -8.919178547673027e-6
O    -0.563751544662995 2.9799584842340527 -5.026827987610696 5.9185504659626e-6 -2.3873348044392087e-5 -2.6007395294806816e-5 2.5579021402379657e-7 -1.0238020148976562e-6 -1.1156664330670008e-6
H    -0.0765928085975873 3.103228393141795 -5.85177627847929 -0.00012301474809549908 5.517723860483979e-5 0.00026997332603471676 -4.884425490094819e-6 2.8078883072497903e-6 1.1161694568410016e-5
H    -0.8489236200030011 2.046728444028449 -5.130552362284076 5.388886663430116e-5 0.0003621681246672594 8.775367665406442e-5 2.0058844439216656e-6 1.5255477808227858e-5 3.927109189353689e-6
O    -3.3791829032279384 -1.3370826659594475 -4.638441747698433 -2.1582981593071214e-5 -2.2935627466632228e-5 1.1238532787036884e-5 -9.222242278458444e-7 -9.797264759628597e-7 4.990979523414249e-7
H    -3.5970509650545135 -1.4602211574978878 -3.689385740775228 0.00011373201847879659 7.83065586277613e-5 -0.00023763348466371192 5.031976410034862e-6 3.5040715387798483e-6 -9.967357163734189e-6
H    -3.9476552627190773 -2.009129654566147 -5.033768815790458 0.00019879771967760328 0.0002621829955273274 3.175119048551243e-5 8.166384140407945e-6 1.0929642971590456e-5 7.05962491659318e-7
O    -3.5381792425399947 -1.472976757509677 1.9991143299075123 -1.8666277906526595e-5 2.1459725059210506e-5 -1.8220006397106808e-5 -8.206338280927518e-7 9.33398358568969e-7 -7.632843892529163e-7
H    -3.3790221548294253 -1.0352691232904419 1.139178085098402 3.0224636922275125e-5 -0.00023690173302552244 0.0002916986457098364 1.727068671953025e-6 -1.024455026850247e-5 1.1999431913275332e-5
H    -4.47573164587582 -1.1826253673512264 2.1119153519700817 0.00026299757687143864 -0.00012465777885114154 9.056016064542057e-6 1.1153043000626902e-5 -5.506056748835838e-6 6.540546975281625e-7
O    -6.578402875321576 -1.3300899265327273 -1.022439071852358 1.8283807558612812e-6 -1.654057017127605e-5 -2.8840350022076907e-5 8.506260063895606e-8 -7.126541636048603e-7 -1.2390512518760193e-6
H    -5.743254259385379 -1.591030064702754 -1.4609532946705672 -0.00019872483626739713 9.325588556037002e-5 0.00018496058019064064 -8.184248097381946e-6 3.9927553811234525e-6 8.011772351972834e-6
H    -7.234782548139465 -1.6691749068548256 -1.6426383818117243 0.00012106214701408685 0.00014446615205703544 0.00023065228919798183 4.499990694783345e-6 6.150002502439471e-6 9.671791639814544e-6
O    -2.744237789183008 -4.043676996041037 1.860688286677152 -2.6513392421372055e-5 7.561629378054641e-6 2.1070237954702905e-5 -1.1403233734563645e-6 3.2942937943849903e-7 9.083035727517965e-7
H    -3.3536867838881386 -4.534438811649712 2.4292697169548356 0.00023037172986252897 8.209162032129436e-5 -0.00019549699269561904 9.641508077085601e-6 2.911303711536088e-6 -8.077626436126241e-6
H    -3.0878825922439526 -3.1281993211790415 1.9817932369096032 0.00014544675171655408 -0.00026929156280570136 -0.00011171889528725155 6.331674572566581e-6 -1.1367508922044775e-5 -5.012481351479179e-6
O    0.1843545606832874 2.390792509647096 5.886103914617116 -1.8787152597413023e-5 -2.2866233240744082e-5 1.7848603421541395e-5 -8.41038644143932e-7 -9.85395270502558e-7 7.559601801269238e-7
H    0.2565655891839515 1.7816791468368953 6.634965741620926 9.28146509832961e-5 0.0002456706463316679 -0.00021775393632279518 4.457384068222737e-6 1.0293524849647104e-5 -8.730296291978983e-6
H    -0.7566370890795958 2.2080989317517736 5.631052933921446 0.0002147687580700702 7.16655924235991e-5 -4.9771231506256854e-5 9.396283797538429e-6 3.230703998947472e-6 -2.418337280424685e-6
O    2.969226946521256 4.669233163383146 3.1063268811521283 7.028299744108194e-6 1.13238926616218e-5 3.1078003361046585e-5 2.9334565515719865e-7 4.955625426488869e-7 1.3375457470338764e-6
H    3.792893187925937 4.9201965540980765 3.5428562770606473 -0.00018425814945748417 -0.00010946213081438372 -0.00021202506454512257 -7.1656380925915654e-6 -4.6653542752052205e-6 -9.135124214172027e-6
H    2.345913589851877 4.739373714679327 3.8646761393864506 0.00012203860078410261 -1.8011521444117354e-5 -0.0002838367395577072 4.884833796717167e-6 -7.421321501633447e-7 -1.2235052979115009e-5
O    1.380131344208386 4.73451661804826 5.2699015486283525 -2.6229520134934214e-5 -9.31606388856042e-6 1.935859641080008e-5 -1.1114542635169326e-6 -3.998202310646594e-7 8.333579489064268e-7
H    0.6985195949113994 5.292447222336595 5.666058988738827 0.00024147392019855868 -0.00012048699834593424 -0.0001614347830178592 1.0014041159221057e-5 -4.527552941795267e-6 -6.79446317836156e-6
H    1.0354972423737079 3.848469414458247 5.512243150277788 0.00017545691379786525 0.0003165452483860209 -8.637870477079644e-5 7.6322121198919e-6 1.316287663709188e-5 -3.63370350440755e-6
O    -4.043971475029044 -1.9243050751925128 -2.006017370408391 2.0975305989155703e-5 -1.8702179522252835e-6 2.194355293990752e-5 8.987709144378883e-7 -9.385685161306718e-8 9.333180781304312e-7
H    -3.5396857632830114 -2.726136744889018 -1.7259749294424374 -0.0001756565182385956 0.00023251754748917583 -0.00010840814687547619 -7.60732269851693e-6 9.726058453633999e-6 -4.7984786349941745e-6
H    -3.6559905435557276 -1.3026241629360857 -1.357550883429542 -0.00017150846757895587 -0.00019635261273717508 -0.0002547245290352151 -7.345826415189162e-6 -7.936711710321026e-6 -1.0696080723111676e-5
