3
i = 1, t = 0.0, V = -76.025988029461, K = 0.0
O    -2.08349 1.03247 0.013700000000000002
H    -1.1156 0.99867 -0.01814
H    -2.36234 0.357 -0.62266
3
i = 2, t = 10.0, V = -76.026021031754, K = 3.275623864722085e-5
O    -2.0834747048044213 1.0324542539983332 0.013685165764353385
H    -1.115946467088957 0.9986791068408485 -0.0181314215069584
H    -2.3622362986194227 0.357240814072504 -0.6224331291516626
3
i = 3, t = 20.0, V = -76.026116124443, K = 0.00012713396487715073
O    -2.083429254131102 1.032407463721564 0.013641084860115324
H    -1.1169755063387108 0.9987064310925357 -0.018105682483318182
H    -2.361928653538774 0.35795614620777516 -0.621759215013691
3
i = 4, t = 30.0, V = -76.026261944882, K = 0.00027183942726354053
O    -2.083354946727262 1.0323309661857325 0.013569016883940993
H    -1.1186561801756398 0.9987519809583808 -0.018062775107298815
H    -2.361427388584889 0.35912476705203955 -0.6206582577559668
3
i = 5, t = 40.0, V = -76.026440809516, K = 0.0004493011993454516
O    -2.08325392545825 1.0322269674010378 0.013471040107879024
H    -1.1209374538483776 0.9988157644876313 -0.01800269164156844
H    -2.3607495268992436 0.36071165470963545 -0.6191632514992608
3
i = 6, t = 50.0, V = -76.02663054074, K = 0.0006374918031969053
O    -2.083129142518044 1.0320985065617658 0.013350017742867256
H    -1.123749039746474 0.9988977813130069 -0.017925432219839155
H    -2.359918498799133 0.36266857138379116 -0.6173196410620378
3
i = 7, t = 60.0, V = -76.02680689723, K = 0.0008123485402672264
O    -2.0829843065671394 1.0319494016321187 0.013209546675394283
H    -1.1270026782101614 0.9989980111916119 -0.017831015646322623
H    -2.3589636999967123 0.36493493849870534 -0.6151844975080736
3
i = 8, t = 70.0, V = -76.026946442577, K = 0.0009506269752498954
O    -2.0828238081800374 1.0317841726027954 0.013053885167882764
H    -1.1305939404364143 0.999116399624493 -0.017719492948965902
H    -2.3579198719919185 0.3674390691532797 -0.6128253570519806
3
i = 9, t = 80.0, V = -76.027029598721, K = 0.0010329328706911167
O    -2.0826526198119235 1.031607938515206 0.012887855845665513
H    -1.1344046429008012 0.9992528409839648 -0.017590963282464057
H    -2.3568262753820926 0.37009981942809755 -0.6103186653631703
3
i = 10, t = 90.0, V = -76.027043535097, K = 0.0010465843360412017
O    -2.0824761670314484 1.0314262849032507 0.01271672081450646
H    -1.1383059495301096 0.9994071597787099 -0.017445591587746834
H    -2.3557256314857202 0.3728287110873828 -0.6077477777686865
3
i = 11, t = 100.0, V = -76.026984465676, K = 0.0009878794923983264
O    -2.0823001691996974 1.0312450997780183 0.012546027142531854
H    -1.1421622034141623 0.9995790908542534 -0.017283627256652733
H    -2.3546628193776296 0.37553255463344554 -0.605200488074064
3
i = 12, t = 110.0, V = -76.026858898769, K = 0.0008633202292036963
O    -2.082130450209555 1.0310703787866733 0.01238142330132113
H    -1.1458354717561696 0.9997682593959153 -0.017105422984842068
H    -2.3536833348880757 0.3781165618264118 -0.6027660962590385
3
i = 13, t = 120.0, V = -76.026683446341, K = 0.0006894063774225337
O    -2.0819727232897276 1.0309080036672893 0.012228450449221485
H    -1.1491907072000445 0.9999741615207611 -0.016911453071677452
H    -2.3528315448710417 0.3804878814625067 -0.6005320774214663
3
i = 14, t = 130.0, V = -76.026482977004, K = 0.0004907921075604426
O    -2.081832357953072 1.0307635023174244 0.012092316393063754
H    -1.1521013321030005 1.0001961460065962 -0.016702330650174346
H    -2.352148801933432 0.38255942584224034 -0.5985804768623466
3
i = 15, t = 140.0, V = -76.026287187168, K = 0.0002968837312772697
O    -2.0817141413899387 1.0306418031406124 0.011977664159117697
H    -1.1544549524661052 1.0004333973716193 -0.016478823644890332
H    -2.35167151767498 0.3842537867091901 -0.5969842208806234
3
i = 16, t = 150.0, V = -76.026126021305, K = 0.00013730867529330038
O    -2.0816220501952887 1.0305470000295134 0.011888350584802417
H    -1.1561588233807558 1.0006849202209496 -0.016241869535544812
H    -2.3514293203943737 0.38550698109647136 -0.5958035878119232
3
i = 17, t = 160.0, V = -76.026024704627, K = 3.7010249673793074e-5
O    -2.081559050384723 1.0304821464724492 0.011827252347402348
H    -1.1571446388258784 1.000949524683608 -0.015992589091280582
H    -2.3514434394424786 0.38627173383571506 -0.5950831155774535
3
i = 18, t = 170.0, V = -76.025999347768, K = 1.1912872758931377e-5
O    -2.0815269434257346 1.0304490970347322 0.011796116624357936
H    -1.1573722236223516 1.0012258130074945 -0.015732299010665637
H    -2.3517254570634756 0.3865200069742015 -0.594849218720581
3
i = 19, t = 180.0, V = -76.026054051884, K = 6.60693503974484e-5
O    -2.0815262730711215 1.0304484114398431 0.011795470728582428
H    -1.1568317738468201 1.0015121681468586 -0.015462522680185794
H    -2.3522765467233477 0.3862445336132654 -0.5951087433779341
3
i = 20, t = 190.0, V = -76.026180158644, K = 0.00019092218031787614
O    -2.08155630244153 1.0304793309772509 0.011824599882379286
H    -1.1555444190281667 1.0018067452401471 -0.015184998204647006
H    -2.3530872746598304 0.38545920088606245 -0.5958486064760884
3
i = 21, t = 200.0, V = -76.026357816479, K = 0.000366846571249054
O    -2.081615063632077 1.0305398295791086 0.011881595336559523
H    -1.1535610468668136 1.0021074686000695 -0.014901681239281248
H    -2.3541379878057254 0.3841982422770179 -0.5970365566472379
3
i = 22, t = 210.0, V = -76.026559509007, K = 0.0005666282699761998
O    -2.0816994743858093 1.030626733946423 0.011963467540755814
H    -1.150959513716838 1.002412037663138 -0.014614739376268083
H    -2.3553997514627008 0.3825143250268099 -0.5986229760845929
3
i = 23, t = 220.0, V = -76.0267547733, K = 0.0007601187968139262
O    -2.081805510312091 1.0307359008610704 0.012066313188258296
H    -1.1478405138049772 1.0027179426014619 -0.014326537424411694
H    -2.3568357466279597 0.38047572021999826 -0.6005435466023148
3
i = 24, t = 230.0, V = -76.026915137881, K = 0.0009191145671284537
O    -2.0819284161719804 1.0308624347172648 0.012185520151402575
H    -1.144322494597425 1.0030224921336244 -0.01403961119320417
H    -2.3584030011009824 0.37816282230961556 -0.6027225285908098
3
i = 25, t = 240.0, V = -76.02701836733, K = 0.0010215599722333563
O    -2.082062938147036 1.031000926653271 0.012315992766461104
H    -1.1405360490894696 1.003322853427912 -0.013756629883119719
H    -2.3600543106178873 0.37566431370959213 -0.605076374353595
3
i = 26, t = 250.0, V = -76.027051357814, K = 0.001054424733774329
O    -2.0822035597421884 1.0311456974206143 0.01245238063960064
H    -1.1366182007388956 1.0036161027405366 -0.013480348362170552
H    -2.361740209662033 0.3730732593307677 -0.6075174074443462
3
i = 27, t = 260.0, V = -76.027011381853, K = 0.0010149526510203814
O    -2.0823447267622934 1.0312910290000574 0.0125892968512333
H    -1.1327069328378312 1.0038992841538197 -0.013213551812235734
H    -2.363410871258889 0.3704833716283026 -0.6099573413652257
3
i = 28, t = 270.0, V = -76.026905722631, K = 0.0009103159280171445
O    -2.082481050754339 1.0314313740434178 0.012721515270188074
H    -1.1289362215691372 1.0041694729770805 -0.012958995984187979
H    -2.3650178448800196 0.3679856229352779 -0.6123104710869823
3
i = 29, t = 280.0, V = -76.026749991796, K = 0.0007559610916509996
O    -2.082607484554588 1.0315615365935302 0.012844140809151751
H    -1.1254317312902304 1.004423840153864 -0.012719346506950556
H    -2.3665155748709905 0.36566531266397717 -0.6144964360383083
3
i = 30, t = 290.0, V = -76.026565559713, K = 0.0005730683806836737
O    -2.082719467429278 1.0316768214979952 0.012952750186672784
H    -1.1223072383308268 1.004659714329719 -0.012497120402745554
H    -2.3678626729770187 0.3635996337395442 -0.6164425127684661
3
i = 31, t = 300.0, V = -76.026376553246, K = 0.00038557486372208075
O    -2.0828130403194045 1.0317731530435572 0.013043503692063516
H    -1.1196617763317618 1.004874638908813 -0.012294632325528566
H    -2.369022943836 0.36185573257567255 -0.618085442644044
3
i = 32, t = 310.0, V = -76.02620682586, K = 0.00021716381794714237
O    -2.0828849337238555 1.0318471654213022 0.013113230412247583
H    -1.1175774463602695 1.0050664222561867 -0.01211394725891658
H    -2.3699661799802376 0.3604892230065607 -0.6193728318735788
3
i = 33, t = 320.0, V = -76.026077216198, K = 8.853632699115972e-5
O    -2.0829326318075263 1.0318962687161843 0.013159490400192422
H    -1.1161178084393124 1.005233179995565 -0.011956840662628487
H    -2.370668752781413 0.35954309660169953 -0.620264178099957
3
i = 34, t = 330.0, V = -76.026003315825, K = 1.5186830264721996e-5
O    -2.0829544165474227 1.0319186943471281 0.01318061748381136
H    -1.1153267645279965 1.0053733689777802 -0.011824766467520903
H    -2.371114028782334 0.35904696747122145 -0.6207315818692917
3
i = 35, t = 340.0, V = -76.025993884384, K = 5.822398814017269e-6
O    -2.0829493952824816 1.0319135234232675 0.013175745980253034
H    -1.1152278524327923 1.0054858131157167 -0.01171883273439438
H    -2.371292638514219 0.35901659635992744 -0.6207601949819537
3
i = 36, t = 350.0, V = -76.026049988322, K = 6.150321102110883e-5
O    -2.0829175144468373 1.0318807008783828 0.013144824011886451
H    -1.115823886367523 1.0055697201067955 -0.011639785898684142
H    -2.3712026179618992 0.35945364958273385 -0.620348447599514
3
i = 37, t = 360.0, V = -76.026164898176, K = 0.00017553998113080076
O    -2.0828595604112756 1.0318210363354545 0.01308861432079111
H    -1.1170969178615549 1.0056246912471256 -0.011588001524446622
H    -2.370849434300134 0.36034567548833785 -0.6195080704183621
3
i = 38, t = 370.0, V = -76.026324747169, K = 0.0003341513205291487
O    -2.0827771482296713 1.0317361925219202 0.013008683354828125
H    -1.1190085020341929 1.0056507222842404 -0.011563483501801539
H    -2.3702458982360346 0.3616662874797247 -0.6182639222461265
3
i = 39, t = 380.0, V = -76.026509926859, K = 0.000517856060505256
O    -2.0826726967825357 1.0316286596826172 0.012907377162190741
H    -1.1215003038706473 1.0056481959616717 -0.011565871072507469
H    -2.3694119522553616 0.363375577587989 -0.6166536003738295
3
i = 40, t = 390.0, V = -76.026697156266, K = 0.0007035357201421607
O    -2.082549388206842 1.031501713817079 0.012787782046949218
H    -1.1244950959456135 1.00561786564411 -0.011594454259685425
H    -2.3683743168296414 0.3654207957058755 -0.6147268006700375
3
i = 41, t = 400.0, V = -76.026862105167, K = 0.0008670463153962963
O    -2.082411108402037 1.031359355435725 0.012653666871543888
H    -1.127898224769504 1.005560829642053 -0.01164819806095279
H    -2.3671659683599104 0.3677373473262667 -0.61254437761152
3
i = 42, t = 410.0, V = -76.026982374845, K = 0.0009861815427382333
O    -2.0822623648882246 1.0312062250003318 0.012509403393642135
H    -1.1315996349066584 1.0054784959895098 -0.011725775637403195
H    -2.365825418815337 0.37025017089533857 -0.6101770466789701
3
i = 43, t = 420.0, V = -76.027040545956, K = 0.0010436967946834714
O    -2.0821081783368114 1.0310474912596383 0.012359861067625514
H    -1.135476538067539 1.0053725378883356 -0.011825610297486007
H    -2.364395768269381 0.37287555470817485 -0.607703672659822
3
i = 44, t = 430.0, V = -76.027026909849, K = 0.001030011951329797
O    -2.081953944912025 1.0308887095332107 0.012210273534469865
H    -1.1393967935645248 1.0052448407187793 -0.011945925428493097
H    -2.3629235093626577 0.37552343922011994 -0.6052091006409626
3
i = 45, t = 440.0, V = -76.026941435159, K = 0.0009451489076457223
O    -2.0818052683150574 1.030735648801828 0.012066075724396838
H    -1.1432230231020075 1.0050974423770676 -0.012084800716847427
H    -2.3614570783119984 0.3781002211346607 -0.6027815142778505
3
i = 46, t = 450.0, V = -76.026794523239, K = 0.0007994639779269573
O    -2.0816677631750387 1.0305940892965741 0.01193271316648653
H    -1.1468174155815063 1.0049324696042141 -0.012240232147140486
H    -2.360045170688635 0.3805120297454248 -0.6005093491531089
3
i = 47, t = 460.0, V = -76.026606209616, K = 0.0006128403000849224
O    -2.081546835070688 1.0304695960263484 0.011815428629993099
H    -1.1500470894605048 1.0047520737322502 -0.012410192551695731
H    -2.358734870560971 0.3826683857666098 -0.5984778457928439
3
i = 48, t = 470.0, V = -76.026403691936, K = 0.0004122276578174311
O    -2.0814474466371844 1.0303672779778685 0.011719035267775296
H    -1.1527897800712206 1.0045583697004061 -0.01259268908050159
H    -2.3575696755330346 0.3844860843001107 -0.59676539152384
3
i = 49, t = 480.0, V = -76.026217389604, K = 0.00022773773936259994
O    -2.0813738832907425 1.0302915469211258 0.01164768938801961
H    -1.1549395223220735 1.0043533821356105 -0.01278581401584806
H    -2.3565875324682217 0.3858930770007001 -0.595439863086303
3
i = 50, t = 490.0, V = -76.026076101898, K = 8.785761709391765e-5
O    -2.081329535258171 1.030245893001668 0.011604679040773157
H    -1.156411925233277 1.0041390017018723 -0.012987785911432142
H    -2.355819022585724 0.38683207753110993 -0.5945552299351704
3
i = 51, t = 500.0, V = -76.026002126722, K = 1.463220136755712e-5
O    -2.081316713957253 1.0302326956999794 0.011592245923639744
H    -1.157148604424761 1.0039169538866681 -0.013196979012037723
H    -2.3552858433874726 0.3872635932329758 -0.5941486981033999
3
i = 52, t = 510.0, V = -76.02600732119, K = 1.9780523404612102e-5
O    -2.0813365197066886 1.030253087639298 0.011611457075754363
H    -1.1571203669914707 1.0036887808959802 -0.013411940319810703
H    -2.3549997234939535 0.3871681048773235 -0.5942386566594016
3
i = 53, t = 520.0, V = -76.026090955836, K = 0.00010258158033770922
O    -2.0813887737199543 1.0303068845795735 0.01166213892541362
H    -1.1563288395184748 1.0034558370736624 -0.013631393914584207
H    -2.354961874024083 0.3865471823827656 -0.5948236265891336
3
i = 54, t = 530.0, V = -76.0262398461, K = 0.00025000382520663116
O    -2.0814720218059763 1.0303925892388084 0.011742880890142334
H    -1.1548063664813784 1.00321929580119 -0.01385423445332709
H    -2.355163031457551 0.38542341726335466 -0.5958823244369956
3
i = 55, t = 540.0, V = -76.026430729984, K = 0.0004390478436937865
O    -2.0815836092298996 1.0305074683785898 0.01185110799862059
H    -1.1526141976917141 1.002980164973821 -0.014079512584606473
H    -2.3555840819976726 0.3838391836489858 -0.5973748295483222
3
i = 56, t = 550.0, V = -76.026634358299, K = 0.0006407791588157437
O    -2.0817198192010173 1.0306476953955204 0.011983215225413181
H    -1.1498391446649479 1.0027393107955982 -0.01430641252125327
H    -2.356197207119561 0.38185435127582107 -0.5992447386607405
3
i = 57, t = 560.0, V = -76.026820418055, K = 0.0008251881427644394
O    -2.0818760615077716 1.0308085445385229 0.012134750462194916
H    -1.1465890338074762 1.002497486325155 -0.014534225133675971
H    -2.3569674363639623 0.3795431743188522 -0.6014220969345024
3
i = 58, t = 570.0, V = -76.026962310303, K = 0.0009659143148261007
O    -2.0820470941672435 1.030984619111399 0.012300629506330433
H    -1.1429873677240987 1.0022553630368447 -0.014762318200046318
H    -2.357854468003773 0.3769906377943221 -0.6038268400061552
3
i = 59, t = 580.0, V = -76.027040947246, K = 0.001044010482096295
O    -2.0822272600561984 1.031170095093834 0.012475365575106862
H    -1.1391676275827085 1.0020135635567646 -0.014990105548536213
H    -2.35881461086578 0.37428855806520617 -0.6063724677016707
3
i = 60, t = 590.0, V = -76.027047041798, K = 0.0010502230223073047
O    -2.08241072200353 1.0313589631724245 0.01265329732204707
H    -1.1352676130731445 1.001772693926155 -0.015217016644926388
H    -2.3598027129789303 0.3715317090556349 -0.6089696935291888
3
i = 61, t = 600.0, V = -76.026981724348, K = 0.0009856196229231203
O    -2.082591683072378 1.0315452555185227 0.01282880248326721
H    -1.1314241387897552 1.0015333739290535 -0.015442468004958057
H    -2.3607739688686826 0.36881419249998443 -0.611529864266741
3
i = 62, t = 610.0, V = -76.026855636645, K = 0.0008607072150676136
O    -2.0827645828679904 1.0317232478794442 0.012996488266677254
H    -1.1277683076521656 1.0012962642306207 -0.015665837613081476
H    -2.3616855303333937 0.3662262032080096 -0.6139680074054242
3
i = 63, t = 620.0, V = -76.026686862369, K = 0.0006933917720943497
O    -2.082924264855919 1.0318876318210928 0.013151353620964592
H    -1.1244214826984367 1.001062089331341 -0.015886443285176494
H    -2.362497878972536 0.3638512722716016 -0.616205428323852
3
i = 64, t = 630.0, V = -76.026498144587, K = 0.0005062238680326937
O    -2.0830661132598065 1.0320336556505552 0.013288921998121794
H    -1.1214919926492033 1.0008316556453905 -0.01610352562700075
H    -2.3631759477777234 0.36176401225963295 -0.6181718345397083
3
i = 65, t = 640.0, V = -76.02631383277, K = 0.000323368852865411
O    -2.083186160790908 1.0321572353092776 0.013405345825396639
H    -1.1190725421507661 1.0006058643265805 -0.01631623594306735
H    -2.3636900010040645 0.360028344292891 -0.6198070059821479
3
i = 66, t = 650.0, V = -76.026156932812, K = 0.00016767368703258506
O    -2.083281170145207 1.032255038260546 0.013497485535300568
H    -1.1172382569709833 1.0003857187478962 -0.016523629184280405
H    -2.364016295450162 0.35869615910045927 -0.6210620564103365
3
i = 67, t = 660.0, V = -76.026046539103, K = 5.8109882409960966e-5
O    -2.083348692960565 1.0323245441736133 0.013562966735845994
H    -1.1160452759983606 1.0001723267524458 -0.01672466182306624
H    -2.3641375526896007 0.357806351588847 -0.6219003429456881
3
i = 68, t = 670.0, V = -76.025995835579, K = 7.780767455494275e-6
O    -2.083387109920405 1.0323640862003334 0.013600219097071398
H    -1.115529801803393 0.9999668979151874 -0.016918194430228115
H    -2.3640432719831086 0.3573841684365727 -0.6222980807028606
3
i = 69, t = 680.0, V = -76.026010777715, K = 2.2606526453088846e-5
O    -2.0833956551318393 1.032372876064832 0.013608499987906886
H    -1.1157075349916015 0.9997707359673949 -0.017102998810136105
H    -2.363729908995403 0.3574408174458065 -0.6222447108194616
3
i = 70, t = 690.0, V = -76.026089513808, K = 0.00010074653234426199
O    -2.0833744268267553 1.032351015075318 0.013587904850351006
H    -1.1165734418015083 0.9995852272959621 -0.01727776883481045
H    -2.363200938349049 0.3579733042633332 -0.6217430542811437
3
i = 71, t = 700.0, V = -76.026222566812, K = 0.00023278088450321262
O    -2.083324385625872 1.0322994923343214 0.013539365513341927
H    -1.118101827999623 0.9994118241933017 -0.017441136224388566
H    -2.3624668072826958 0.3589644775378376 -0.6208092693788632
3
i = 72, t = 710.0, V = -76.026393770496, K = 0.0004026446450708348
O    -2.083247339655821 1.0322201694164874 0.013464635757777631
H    -1.1202467320957041 0.9992520248546942 -0.01759168939277565
H    -2.3615447786575934 0.36038329211697556 -0.619472603750884
3
i = 73, t = 720.0, V = -76.026581921612, K = 0.0005892755676613409
O    -2.0831459152582723 1.0321157502150602 0.013366262909030131
H    -1.122942669994508 0.9991073490479089 -0.017727996371504004
H    -2.360458651211448 0.3621853119750299 -0.617774920574629
3
i = 74, t = 730.0, V = -76.026763066648, K = 0.0007688926139285369
O    -2.0830235104736574 1.0319897330560892 0.013247542723959888
H    -1.1261057966748882 0.9989793102234279 -0.017848631088151625
H    -2.359238336186787 0.364313498147141 -0.61576995625388
3
i = 75, t = 740.0, V = -76.026913277882, K = 0.0009177584303423981
O    -2.082884227828176 1.0318463415059727 0.01311245420501519
H    -1.1296355666534366 0.9988693845264611 -0.017952202565089368
H    -2.357919263673481 0.36669933794171483 -0.6135222565878635
3
i = 76, t = 750.0, V = -76.027011689487, K = 0.0010151956009132011
O    -2.082732782583438 1.031690429917635 0.0129655706157301
H    -1.133416982995645 0.9987789775776885 -0.018037386222078056
H    -2.3565415898615023 0.36926437733284206 -0.6111057331045187
3
i = 77, t = 760.0, V = -76.027043468992, K = 0.0010465323380107051
O    -2.0825743829270578 1.0315273600890744 0.012811943281303688
H    -1.1373235163080226 0.9987093902678956 -0.018102956109903912
H    -2.355149179666527 0.3719222128442457 -0.6086017865068885
3
i = 78, t = 770.0, V = -76.027002313339, K = 0.001005569346639807
O    -2.0824145797562084 1.0313628466163471 0.012656955896361906
H    -1.1412207465410418 0.9986617851507281 -0.0181478165827074
H    -2.3537883491659763 0.37458097971758797 -0.6060969625701186
3
i = 79, t = 780.0, V = -76.026892014493, K = 0.0008961178484260023
O    -2.0822590858695134 1.0312027707505098 0.01250614916043745
H    -1.1449707285694177 0.9986371552000717 -0.018171031744790407
H    -2.3525063698094106 0.3771463376221828 -0.603680139304811
3
i = 80, t = 790.0, V = -76.026726674916, K = 0.0007321963107174153
O    -2.08211356754158 1.0310529658205443 0.012365018625893953
H    -1.1484370074781252 0.9986362966078661 -0.01817185109289895
H    -2.3513497612663237 0.3795249036296542 -0.6014392927521823
3
i = 81, t = 800.0, V = -76.026529299317, K = 0.00053662013707751
O    -2.081983415406669 1.0309189813535322 0.012238792476636196
H    -1.15149011622394 0.9986597868650624 -0.018149730182720442
H    -2.350362430304612 0.38162801802305774 -0.5994579492159624
3
i = 82, t = 810.0, V = -76.026328752363, K = 0.0003379797838747049
O    -2.0818735058561537 1.0308058374283875 0.012132200105887891
H    -1.1540132879338116 0.998707968619092 -0.01810434585399053
H    -2.349583745597365 0.38337565934290485 -0.5978114968982666
3
i = 83, t = 820.0, V = -76.026155418148, K = 0.00016634368302731364
O    -2.081787968032562 1.030717784792408 0.012049246123099766
H    -1.1559080245423872 0.9987809388860309 -0.018035606410514375
H    -2.349046667361406 0.384700262610801 -0.5965635887518398
3
i = 84, t = 830.0, V = -76.02603624609, K = 4.8363932590996247e-5
O    -2.08172997409708 1.03065808894079 0.01199300693625585
H    -1.1570991033060456 0.9988785423723603 -0.017943657926847913
H    -2.3487760697224664 0.3855501531027538 -0.5957629075228965
3
i = 85, t = 840.0, V = -76.025990110016, K = 2.697926753343356e-6
O    -2.081701570919452 1.0306288568450783 0.011965467513543314
H    -1.15753859234797 0.9990003672208475 -0.0178288882682241
H    -2.3487873965920305 0.38589230077347425 -0.5954405708085311
3
i = 86, t = 850.0, V = -76.026024441263, K = 3.668991681730166e-5
O    -2.081703569151262 1.0306309227633819 0.011967413805682628
H    -1.157208497987615 0.9991457417516779 -0.017691930168723856
H    -2.34908577496941 0.3857141359382204 -0.5956084205032113
3
i = 87, t = 860.0, V = -76.02613387658, K = 0.0001450390740738543
O    -2.081735500861436 1.0306638046409222 0.011998391671088463
H    -1.1561217799079653 0.9993137310610601 -0.017533664438790057
H    -2.349665672184806 0.385024244685667 -0.5962583676504389
3
i = 88, t = 870.0, V = -76.026301227705, K = 0.0003107546436571405
O    -2.081795650116055 1.030725735611259 0.012056736553022663
H    -1.1543216283670372 0.9995031342323397 -0.017355222590450914
H    -2.3505111333242055 0.38385187167870377 -0.5973628608540061
3
i = 89, t = 880.0, V = -76.026500552721, K = 0.0005081827635775505
O    -2.081881153115748 1.0308137671090487 0.012139670621654343
H    -1.1518790802712158 0.9997124841323929 -0.01715798702193532
H    -2.3515965757730384 0.38224528374979605 -0.5988764279344692
3
i = 90, t = 890.0, V = -76.026701649644, K = 0.0007074387111071726
O    -2.0819881578339734 1.0309239332384976 0.01224345762482291
H    -1.148889210490777 0.9999400513775735 -0.016943587269856474
H    -2.3528880641180323 0.3802691570750287 -0.6007381374719633
3
i = 91, t = 900.0, V = -76.026875030197, K = 0.000879319252348707
O    -2.08211202763742 1.031051460418063 0.012363600393340536
H    -1.1454662618140563 1.0001838556135871 -0.016713889367752775
H    -2.3543449483251186 0.3780012384086304 -0.6028747442565253
3
i = 92, t = 910.0, V = -76.026996423759, K = 0.0009997596434769746
O    -2.082247570915222 1.0311910037957115 0.012495063566722763
H    -1.1417381379404794 1.0004416859324796 -0.016470976594642313
H    -2.3559217260660974 0.37552857227729775 -0.6052042436476387
3
i = 93, t = 920.0, V = -76.027050074478, K = 0.0010531062544935155
O    -2.0823892788235856 1.0313368920122843 0.012632504183627697
H    -1.137840684006375 1.0007111312190224 -0.01621712086846865
H    -2.357569988704533 0.3729435857438465 -0.6076395601177277
3
i = 94, t = 930.0, V = -76.027030433599, K = 0.001033807449822237
O    -2.0825315555827837 1.0314833642906784 0.012770495042480883
H    -1.1339121263183551 1.0009896198435915 -0.01595474533471089
H    -2.359240326282855 0.3703402856292167 -0.6100921298487049
3
i = 95, t = 940.0, V = -76.02694220286, K = 0.0009464734634630793
O    -2.0826689295112653 1.0316247876877935 0.012903729373530399
H    -1.130087956109809 1.0012744668950544 -0.015686379852906687
H    -2.360884094227576 0.3678107630515718 -0.6124751938051781
3
i = 96, t = 950.0, V = -76.026798966244, K = 0.0008045348358269977
O    -2.0827962372537026 1.031755846744987 0.013027199507672518
H    -1.1264964419884833 1.001562926337874 -0.015414611845977843
H    -2.3624549768296124 0.36544213113256313 -0.6147066827209807
3
i = 97, t = 960.0, V = -76.026620814095, K = 0.0006278959264031012
O    -2.0829087776972535 1.0318717019296013 0.013136346143480871
H    -1.123254860182001 1.001852245185608 -0.015142035252079442
H    -2.3639103140363007 0.3633139560362022 -0.6167116373171637
3
i = 98, t = 970.0, V = -76.026431416069, K = 0.00044003449091098326
O    -2.083002435365036 1.0319681166520578 0.013227178009426221
H    -1.1204664529010495 1.0021397169587787 -0.01487120015284385
H    -2.365212184583999 0.36149618749264206 -0.6184241579553527
3
i = 99, t = 980.0, V = -76.026254965789, K = 0.0002649673056609055
O    -2.0830737753894195 1.0320415550246196 0.013296363961957158
H    -1.1182180690965728 1.0024227321897483 -0.014604565185696177
H    -2.3663282578226594 0.36004755666388216 -0.6197889140083612
3
i = 100, t = 990.0, V = -76.026113338429, K = 0.00012442235647075673
O    -2.0831201134807196 1.032089253879341 0.013341300833280554
H    -1.116578409400191 1.002698824368938 -0.014344454252695262
H    -2.3672324382303827 0.35901438712690475 -0.620762264032938
3
i = 101, t = 1000.0, V = -76.026023706498, K = 3.546369511565068e-5
O    -2.0831395647410513 1.0321092730092476 0.013360160763344715
H    -1.1155967855225046 1.0029657103350254 -0.01409301846525085
H    -2.367905331240687 0.35842975705429214 -0.6213130450794123
