3
i = 1, t = 0.0, V = -76.016789472074, K = 0.0
O    0.0 0.0 0.0
H    1.0 0.0 0.0
H    0.0 1.0 0.0
3
i = 2, t = 10.0, V = -76.016938693896, K = 0.00014850108305105406
O    6.0584018639074985e-5 6.0584018639072925e-5 0.0
H    0.999366523453353 -0.00032811443966905215 0.0
H    -0.00032811443966905497 0.999366523453353 1.4296769928804855e-18
3
i = 3, t = 20.0, V = -76.017374857614, K = 0.0005825371819203398
O    0.00024131463426717363 0.0002413146342671695 0.0
H    0.9974813487180514 -0.0013115003387265923 0.0
H    -0.0013115003387266036 0.9974813487180514 2.859353985760971e-18
3
i = 4, t = 30.0, V = -76.018064067423, K = 0.0012683211026362415
O    0.0005391241423256509 0.0005391241423256485 0.0
H    0.9943902988350365 -0.002947290058318396 -2.859353985760971e-18
H    -0.002947290058318418 0.9943902988350365 7.148384964402428e-18
3
i = 5, t = 40.0, V = -76.01895192961, K = 0.002151655308249281
O    0.0009488910111581702 0.0009488910111581689 3.6030112102594655e-19
H    0.9901699012532938 -0.00523072197503955 -1.1437415943043882e-17
H    -0.005230721975039595 0.9901699012532938 1.1437415943043882e-17
3
i = 6, t = 50.0, V = -76.019966920025, K = 0.0031613178405240677
O    0.001463435866973852 0.0014634358669738526 7.206022420518931e-19
H    0.9849274831839948 -0.008155172108314951 -2.0015477900326794e-17
H    -0.008155172108315033 0.9849274831839947 1.5726446921685337e-17
3
i = 7, t = 60.0, V = -76.021025464535, K = 0.004214159089838798
O    0.00207353390447774 0.00207353390447774 1.0809033630778396e-18
H    0.9788010263354244 -0.011712205837149978 -2.8593539857609704e-17
H    -0.011712205837150103 0.9788010263354242 2.0015477900326794e-17
3
i = 8, t = 70.0, V = -76.022038923284, K = 0.0052220897915290785
O    0.002767961899723517 0.0027679618997235155 1.2610539235908128e-18
H    0.971958494871388 -0.015891652047654383 -3.7171601814892617e-17
H    -0.015891652047654563 0.9719584948713876 2.7163862864729218e-17
3
i = 9, t = 80.0, V = -76.022922455803, K = 0.006100923236171601
O    0.003533602559060102 0.003533602559060103 1.6213550446167594e-18
H    0.9645962707039284 -0.020681694654724716 -4.289030978641455e-17
H    -0.02068169465472496 0.964596270703928 2.8593539857609704e-17
3
i = 10, t = 90.0, V = -76.023605324306, K = 0.006780614553757671
O    0.004355631974641686 0.00435563197464168 1.981656165642706e-18
H    0.9569362687594601 -0.02606896316649638 -4.8609017757936495e-17
H    -0.02606896316649667 0.9569362687594596 3.002321685049019e-17
3
i = 11, t = 100.0, V = -76.024041568171, K = 0.007215821151823225
O    0.005217815881867899 0.0052178158818678945 2.3419572866686523e-18
H    0.9492212864980754 -0.032038584408794375 -5.432772572945843e-17
H    -0.032038584408794715 0.9492212864980746 3.1452893843370675e-17
3
i = 12, t = 110.0, V = -76.024219249466, K = 0.007394990335079309
O    0.0061029353398336225 0.006102935339833625 2.882408968207572e-18
H    0.9417081986839047 -0.03857413370572854 -6.004643370098038e-17
H    -0.03857413370572891 0.9417081986839038 3.002321685049019e-17
3
i = 13, t = 120.0, V = -76.024165862129, K = 0.007345597693165741
O    0.006993350588304185 0.0069933505883041855 3.603011210259465e-18
H    0.934658774245616 -0.04565740129152795 -6.290578768674134e-17
H    -0.04565740129152835 0.934658774245615 2.2874831886087762e-17
3
i = 14, t = 130.0, V = -76.02394738454, K = 0.007133074751566001
O    0.00787169235149467 0.007871692351494656 4.323613452311358e-18
H    0.9283281899476342 -0.053267878371804585 -5.71870797152194e-17
H    -0.053267878371805036 0.928328189947633 7.14838496440242e-18
3
i = 15, t = 140.0, V = -76.023659229582, K = 0.006851753372009774
O    0.008721644042273664 0.008721644042273642 5.224366254876224e-18
H    0.9229517381120416 -0.06138188000920137 -5.4327725729458424e-17
H    -0.06138188000920189 0.9229517381120403 -8.578061957282922e-18
3
i = 16, t = 150.0, V = -76.023409189042, K = 0.006607979198461886
O    0.009528750487792118 0.009528750487792094 5.944968496928117e-18
H    0.9187307159617231 -0.0699712705789723 -5.146837174369746e-17
H    -0.06997127057897289 0.9187307159617222 -2.1445154893207295e-17
3
i = 17, t = 160.0, V = -76.023295072437, K = 0.006498087603287084
O    0.010281166315246806 0.010281166315246748 6.66557073898001e-18
H    0.9158189285821486 -0.07900184512742127 -4.860901775793649e-17
H    -0.07900184512742196 0.9158189285821481 -3.7171601814892635e-17
3
i = 18, t = 170.0, V = -76.023382197758, K = 0.006586311275575388
O    0.010970248160803026 0.010970248160802968 7.20602242051893e-18
H    0.9143114929943753 -0.08843153299902713 -4.574966377217552e-17
H    -0.08843153299902792 0.9143114929943751 -5.003869475081701e-17
3
i = 19, t = 180.0, V = -76.023686974063, K = 0.006888706318687737
O    0.011590907118823561 0.0115909071188235 7.566323541544877e-18
H    0.9142375452581514 -0.09820869902209971 -4.0030955800653576e-17
H    -0.09820869902210064 0.9142375452581516 -6.290578768674139e-17
3
i = 20, t = 190.0, V = -76.024171652099, K = 0.007368026220102124
O    0.012141669925207191 0.01214166992520717 8.106775223083797e-18
H    0.9155580033846958 -0.10827087752496567 -3.431224782913163e-17
H    -0.10827087752496677 0.9155580033846964 -7.577288062266576e-17
3
i = 21, t = 200.0, V = -76.024752049689, K = 0.007941294622570929
O    0.012624444322534768 0.012624444322534798 8.82737746513569e-18
H    0.9181687741955207 -0.1185442550648029 -2.8593539857609685e-17
H    -0.11854425506480416 0.9181687741955217 -9.14993275443511e-17
3
i = 22, t = 210.0, V = -76.025315969419, K = 0.008497859021466068
O    0.013044032228797499 0.013044032228797568 9.547979707187584e-18
H    0.9219089179329556 -0.12894410804062859 -2.2874831886087743e-17
H    -0.12894410804062997 0.9219089179329569 -1.0722577446603645e-16
3
i = 23, t = 220.0, V = -76.025746886105, K = 0.00892265309496054
O    0.013407470471353137 0.013407470471353256 1.0268581949239478e-17
H    0.9265725402138483 -0.13937623076065628 -2.001547790032677e-17
H    -0.13937623076065786 0.9265725402138498 -1.200928674019608e-16
3
i = 24, t = 230.0, V = -76.025946528819, K = 0.009118446256675222
O    0.013723294454808284 0.013723294454808459 1.1169334751804344e-17
H    0.931922752860334 -0.1497392091921613 -1.4296769928804827e-17
H    -0.149739209192163 0.9319227528603358 -1.3867866830940712e-16
3
i = 25, t = 240.0, V = -76.025851290567, K = 0.009022100716574746
O    0.014000814275474172 0.014000814275474397 1.1889936993856238e-17
H    0.9377060026786082 -0.1599272602116597 -1.1437415943043856e-17
H    -0.1599272602116615 0.93770600267861 -1.515457612453315e-16
3
i = 26, t = 250.0, V = -76.02544002406, K = 0.008612393829481639
O    0.014249471308204148 0.014249471308204436 1.2610539235908131e-17
H    0.9436653510547686 -0.16983329893171628 -5.7187079715219135e-18
H    -0.16983329893171814 0.9436653510547705 -1.6441285418125583e-16
3
i = 27, t = 260.0, V = -76.024733457974, K = 0.007909578348141382
O    0.014478315131473615 0.014478315131473954 1.2970840356934078e-17
H    0.9495517572918326 -0.1793519197803762 5.718707971521972e-18
H    -0.17935191978037818 0.9495517572918343 -1.7442059313141923e-16
3
i = 28, t = 270.0, V = -76.023787285158, K = 0.006968654249810252
O    0.014695613787090127 0.014695613787090504 1.3150990917447051e-17
H    0.9551329249871241 -0.1883820569113908 1.4296769928804886e-17
H    -0.18838205691139281 0.9551329249871259 -1.7870962411006071e-16
3
i = 29, t = 280.0, V = -76.022681654678, K = 0.005869024077330314
O    0.014908589896965998 0.014908589896966445 1.3331141477960025e-17
H    0.9601996988269355 -0.19682919263801216 2.573418587184877e-17
H    -0.1968291926380142 0.9601996988269371 -1.8585800907446314e-16
3
i = 30, t = 290.0, V = -76.02150957075, K = 0.004703005132059495
O    0.015123262747693647 0.015123262747694198 1.3331141477960025e-17
H    0.9645702925308058 -0.20460707893989075 3.7171601814892654e-17
H    -0.20460707893989286 0.9645702925308074 -1.9014704005310462e-16
3
i = 31, t = 300.0, V = -76.020365996773, K = 0.0035649931300800177
O    0.015344371232781944 0.015344371232782575 1.3331141477960025e-17
H    0.968092783206435 -0.2116390087553294 4.860901775793654e-17
H    -0.2116390087553315 0.9680927832064364 -1.9443607103174608e-16
3
i = 32, t = 310.0, V = -76.019338671576, K = 0.002542296110463724
O    0.015575352529934283 0.015575352529934992 1.3511292038472998e-17
H    0.9706463495308846 -0.21785871572773605 6.004643370098043e-17
H    -0.21785871572773818 0.9706463495308858 -2.015844559961485e-16
3
i = 33, t = 320.0, V = -76.018501003864, K = 0.001708021177683503
O    0.015818354483256705 0.015818354483257486 1.3691442598985972e-17
H    0.9721416980481297 -0.2232109970338755 7.148384964402432e-17
H    -0.22321099703387773 0.9721416980481307 -2.0873284096055096e-16
3
i = 34, t = 330.0, V = -76.017907004254, K = 0.0011159881904678373
O    0.01607426401944493 0.016074264019445842 1.3871593159498945e-17
H    0.9725210493272917 -0.22765215056450194 8.006191160130724e-17
H    -0.22765215056450422 0.9725210493272926 -2.1302187193919241e-16
3
i = 35, t = 340.0, V = -76.017588030318, K = 0.0007974564595149019
O    0.01634273861371 0.01634273861371107 1.4231894280524893e-17
H    0.9717579661605144 -0.23115030255015293 8.863997355859015e-17
H    -0.23115030255015528 0.9717579661605149 -2.2017025690359484e-16
3
i = 36, t = 350.0, V = -76.017551104628, K = 0.0007594316642184956
O    0.01662223253106051 0.016622232531061716 1.4231894280524893e-17
H    0.9698572107807243 -0.23368568128116818 9.721803551587306e-17
H    -0.23368568128117062 0.9698572107807248 -2.244592878822363e-16
3
i = 37, t = 360.0, V = -76.017778657191, K = 0.0009844078819989139
O    0.016910013568797122 0.016910013568798503 1.4231894280524893e-17
H    0.9668547299542513 -0.23525086793758151 1.0865545145891696e-16
H    -0.2352508679375841 0.9668547299542516 -2.287483188608778e-16
3
i = 38, t = 370.0, V = -76.018229688935, K = 0.0014315416821785902
O    0.01720216973922446 0.017202169739226003 1.4231894280524893e-17
H    0.9628177805400576 -0.23585102821651135 1.2009286740196083e-16
H    -0.23585102821651413 0.9628177805400578 -2.330373498395193e-16
3
i = 39, t = 380.0, V = -76.018842506141, K = 0.0020394060382680395
O    0.017493608911476485 0.017493608911478158 1.4231894280524893e-17
H    0.9578451218937168 -0.23550409905118413 1.3153028334500472e-16
H    -0.2355040990511871 0.9578451218937171 -2.344670268323997e-16
3
i = 40, t = 390.0, V = -76.019539290493, K = 0.0027305826853388834
O    0.01777805833290643 0.017778058332908225 1.405174372001192e-17
H    0.9520671105441637 -0.23424087569117383 1.4010834530228763e-16
H    -0.23424087569117696 0.952067110544164 -2.301779958537583e-16
3
i = 41, t = 400.0, V = -76.020232791574, K = 0.0034183696017051316
O    0.018048074803235503 0.01804807480323745 1.3691442598985972e-17
H    0.9456454383958368 -0.2321049113888753 1.5154576124533151e-16
H    -0.23210491138887865 0.9456454383958373 -2.2874831886087783e-16
3
i = 42, t = 410.0, V = -76.020835292055, K = 0.0040157391124570835
O    0.01829508071416361 0.018295080714165673 1.3511292038472998e-17
H    0.938772156786511 -0.22915211347889497 1.629831771883754e-16
H    -0.2291521134788985 0.9387721567865113 -2.301779958537583e-16
3
i = 43, t = 420.0, V = -76.021269631867, K = 0.004446314374807799
O    0.01850944522867922 0.018509445228681445 1.3331141477960025e-17
H    0.9316675412407414 -0.22544989661143608 1.715612391456583e-16
H    -0.22544989661143983 0.9316675412407416 -2.316076728466388e-16
3
i = 44, t = 430.0, V = -76.021481446423, K = 0.00465650287087129
O    0.01868063311973087 0.01868063311973322 1.3331141477960025e-17
H    0.9245762934908893 -0.2210757471442597 1.7727994711718025e-16
H    -0.22107574714426365 0.9245762934908898 -2.330373498395193e-16
3
i = 45, t = 440.0, V = -76.021450917783, K = 0.00462708124436925
O    0.018797444760295285 0.018797444760297738 1.3331141477960025e-17
H    0.9177615823877667 -0.21611507318140646 1.829986550887022e-16
H    -0.21611507318141068 0.9177615823877674 -2.344670268323997e-16
3
i = 46, t = 450.0, V = -76.021201450764, K = 0.0043816641784655014
O    0.01884836767447124 0.018848367674473794 1.3331141477960025e-17
H    0.9114965343734777 -0.21065827487336988 1.8871736306022416e-16
H    -0.2106582748733744 0.9114965343734788 -2.3589670382528026e-16
3
i = 47, t = 460.0, V = -76.020802153969, K = 0.003988993494131945
O    0.018822051016583578 0.01882205101658618 1.3691442598985972e-17
H    0.9060530354104217 -0.20479707728973465 1.944360710317461e-16
H    -0.20479707728973948 0.9060530354104231 -2.401857348039217e-16
3
i = 48, t = 470.0, V = -76.020361345807, K = 0.003556354395836345
O    0.018707898089150656 0.01870789808915328 1.4412044841037867e-17
H    0.9016881155027396 -0.19862031939991118 1.9729542501750707e-16
H    -0.19862031939991634 0.9016881155027416 -2.501934737540851e-16
3
i = 49, t = 480.0, V = -76.020009939508, K = 0.0032130615955242928
O    0.01849674899477857 0.018496748994781258 1.5132647083089757e-17
H    0.8986287234844739 -0.1922095639284138 2.0015477900326804e-16
H    -0.19220956392841929 0.8986287234844764 -2.602012127042485e-16
3
i = 50, t = 490.0, V = -76.019876448585, K = 0.0030857914463322212
O    0.018181599520326136 0.018181599520328884 1.585324932514165e-17
H    0.897056259158749 -0.18563503964062233 2.03014132989029e-16
H    -0.1856350396406282 0.8970562591587521 -2.6734959766865094e-16
3
i = 51, t = 500.0, V = -76.020058699898, K = 0.0032707854620581006
O    0.017758278198614703 0.01775827819861752 1.639370100668057e-17
H    0.8970926767319954 -0.17895249111658734 2.0873284096055096e-16
H    -0.17895249111659356 0.8970926767319989 -2.7449798263305336e-16
3
i = 52, t = 510.0, V = -76.020599669852, K = 0.0038101755546750297
O    0.017225992588431823 0.01722599258843472 1.7114303248732464e-17
H    0.8987900813510405 -0.17220144585734432 2.144515489320729e-16
H    -0.17220144585735098 0.8987900813510443 -2.8450572158321676e-16
3
i = 53, t = 520.0, V = -76.021474724805, K = 0.004679509230655599
O    0.016587661751110344 0.016587661751113314 1.8195206611810304e-17
H    0.9021254419868999 -0.1654052042448852 2.1731090291783387e-16
H    -0.16540520424489233 0.902125441986904 -2.9737281451914113e-16
3
i = 54, t = 530.0, V = -76.0225944775, K = 0.00579055910544808
O    0.015849978178193398 0.01584997817819644 1.909595941437517e-17
H    0.9070013205960333 -0.1585725516207876 2.2017025690359482e-16
H    -0.15857255162079512 0.9070013205960378 -3.0738055346930453e-16
3
i = 55, t = 540.0, V = -76.023822536376, K = 0.0070087130696641796
O    0.015023184553111643 0.01502318455311478 1.9996712216940038e-17
H    0.9132525346929862 -0.15170087761488182 2.2588896487511676e-16
H    -0.1517008776148898 0.913252534692991 -3.202476464052289e-16
3
i = 56, t = 550.0, V = -76.025002786188, K = 0.008179739761923741
O    0.014120596283351326 0.014120596283354585 2.071731445899193e-17
H    0.9206577163852034 -0.14478015679926803 2.2874831886087773e-16
H    -0.14478015679927644 0.9206577163852085 -3.2739603136963133e-16
3
i = 57, t = 560.0, V = -76.025988483278, K = 0.009158415824952644
O    0.013157937937333202 0.013157937937336588 2.1437916701043825e-17
H    0.928954054523302 -0.13779715874893195 2.316076728466387e-16
H    -0.13779715874894077 0.9289540545233073 -3.3454441633403376e-16
3
i = 58, t = 570.0, V = -76.026666071439, K = 0.009832066772909365
O    0.012152580842019775 0.012152580842023296 2.215851894309572e-17
H    0.9378532688159165 -0.13073932128765978 2.3446702683239967e-16
H    -0.1307393212876691 0.9378532688159219 -3.4455215528419715e-16
3
i = 59, t = 580.0, V = -76.026969421878, K = 0.010134761401370068
O    0.01112276860064212 0.011122768600645802 2.3059271745660585e-17
H    0.9470570438783048 -0.12359789193556504 2.3446702683239967e-16
H    -0.1235978919355749 0.9470570438783101 -3.574192482201215e-16
3
i = 60, t = 590.0, V = -76.026883612955, K = 0.010051220601398958
O    0.010086900919760647 0.010086900919764516 2.4140175108738426e-17
H    0.9562706189547323 -0.11637015051752768 2.3446702683239967e-16
H    -0.11637015051753807 0.9562706189547375 -3.7314569514180686e-16
3
i = 61, t = 600.0, V = -76.02644003293, K = 0.009612130370009707
O    0.009062921588942605 0.009062921588946667 2.540122903232924e-17
H    0.9652138034294511 -0.10906071067304438 2.316076728466387e-16
H    -0.10906071067305524 0.9652138034294563 -3.9173149604925313e-16
3
i = 62, t = 610.0, V = -76.025705902272, K = 0.008883872585892839
O    0.00806783121178264 0.008067831211786922 2.648213239540708e-17
H    0.9736292163051743 -0.10168202538985885 2.2874831886087773e-16
H    -0.10168202538987017 0.9736292163051794 -4.103172969566995e-16
3
i = 63, t = 620.0, V = -76.024771381397, K = 0.007955790875420575
O    0.007117324511119893 0.007117324511124397 2.756303575848492e-17
H    0.981287940697815 -0.0942542847984708 2.2588896487511676e-16
H    -0.09425428479848254 0.9812879406978199 -4.289030978641458e-16
3
i = 64, t = 630.0, V = -76.023736738749, K = 0.00692745241935469
O    0.006225537968691237 0.006225537968695954 2.8463788561049786e-17
H    0.9879930179592791 -0.08680490482549673 2.2588896487511676e-16
H    -0.0868049048255089 0.987993017959284 -4.474888987715921e-16
3
i = 65, t = 640.0, V = -76.0227011121, K = 0.005897447191370997
O    0.005404886129791347 0.005404886129796278 2.9544691924127627e-17
H    0.9935813003298369 -0.07936778166970845 2.2302961088935584e-16
H    -0.07936778166972104 0.9935813003298417 -4.660746996790385e-16
3
i = 66, t = 650.0, V = -76.021753550962, K = 0.004954430492875594
O    0.004665962737379887 0.00466596273738505 3.062559528720547e-17
H    0.9979241755892003 -0.07198244725130568 2.2302961088935584e-16
H    -0.07198244725131867 0.9979241755892051 -4.875198545722457e-16
3
i = 67, t = 660.0, V = -76.020966435955, K = 0.004170522931384417
O    0.00401748421801181 0.004017484218017199 3.170649865028331e-17
H    1.0009276125998372 -0.06469321776257006 2.2302961088935584e-16
H    -0.06469321776258344 1.0009276125998416 -5.089650094654529e-16
3
i = 68, t = 670.0, V = -76.020391049372, K = 0.003596856451081467
O    0.0034662563904408594 0.0034662563904464686 3.260725145284818e-17
H    1.0025318847880036 -0.05754838874706083 2.2302961088935584e-16
H    -0.05754838874707458 1.002531884788008 -5.275508103728993e-16
3
i = 69, t = 680.0, V = -76.020054967579, K = 0.0032609460991250383
O    0.0030171494731798293 0.003017149473185668 3.332785369490007e-17
H    1.0027112307010788 -0.050599498976349695 2.2302961088935584e-16
H    -0.0505994989763638 1.002711230701083 -5.432772572945846e-16
3
i = 70, t = 690.0, V = -76.019960990621, K = 0.003165608615302028
O    0.002673071306151135 0.0026730713061571946 3.386830537643899e-17
H    1.0014736107885829 -0.04390066220443961 2.2302961088935584e-16
H    -0.043900662204454044 1.001473610788587 -5.56144350230509e-16
3
i = 71, t = 700.0, V = -76.020087449692, K = 0.0032892704795946075
O    0.0024349327077677328 0.0024349327077740107 3.4228606497464934e-17
H    0.9988606406411944 -0.037507950553545694 2.2302961088935584e-16
H    -0.03750795055356043 0.9988606406411985 -5.661520891806725e-16
3
i = 72, t = 710.0, V = -76.020389896126, K = 0.0035876680633773594
O    0.0023016042652298768 0.002301604265236366 3.458890761849088e-17
H    0.9949476846306136 -0.0314788023285198 2.2017025690359484e-16
H    -0.03147880232853483 0.9949476846306177 -5.704411201593139e-16
3
i = 73, t = 720.0, V = -76.020804327384, K = 0.00399709226733051
O    0.0022698684525325977 0.0022698684525392907 3.494920873951683e-17
H    0.9898440167650653 -0.025871422888228246 2.144515489320729e-16
H    -0.025871422888243574 0.9898440167650695 -5.718707971521944e-16
3
i = 74, t = 730.0, V = -76.021252211122, K = 0.004439434002683967
O    0.0023343766143792376 0.002334376614386135 3.5129359300029804e-17
H    0.9836928660788425 -0.020744147282746695 2.0301413298902902e-16
H    -0.020744147282762304 0.983692866078847 -5.64722412187792e-16
3
i = 75, t = 740.0, V = -76.021647577605, K = 0.004829290385644908
O    0.002487626746394622 0.0024876267464017123 3.5129359300029804e-17
H    0.9766710673588255 -0.016154738306893183 1.9157671704598516e-16
H    -0.016154738306909076 0.9766710673588304 -5.575740272233896e-16
3
i = 76, t = 750.0, V = -76.021906301303, K = 0.005083236796893048
O    0.002719983462611889 0.002719983462619172 3.5129359300029804e-17
H    0.9689879556634268 -0.012159597943600336 1.8013930110294127e-16
H    -0.012159597943616492 0.968987955663432 -5.532849962447481e-16
3
i = 77, t = 760.0, V = -76.021957329252, K = 0.005131006437736941
O    0.0030197679637990866 0.0030197679638065645 3.494920873951683e-17
H    0.9608830522668167 -0.00881288128756255 1.687018851598974e-16
H    -0.008812881287578962 0.9608830522668224 -5.461366112803458e-16
3
i = 78, t = 770.0, V = -76.021754994999, K = 0.004927700499924723
O    0.003373450210220322 0.0033734502102279874 3.458890761849088e-17
H    0.9526220341979471 -0.006165516254899737 1.572644692168535e-16
H    -0.006165516254916418 0.9526220341979534 -5.389882263159434e-16
3
i = 79, t = 780.0, V = -76.021290722051, K = 0.004465327601781647
O    0.0037659755756697007 0.0037659755756775607 3.440875705797791e-17
H    0.9444904884903788 -0.004264142493588802 1.486864072595706e-16
H    -0.004264142493605758 0.9444904884903854 -5.375585493230629e-16
3
i = 80, t = 790.0, V = -76.0206015499, K = 0.00378112434630259
O    0.0041812521886191445 0.004181252188627194 3.440875705797791e-17
H    0.9367850585136934 -0.003149992805178269 1.4010834530228768e-16
H    -0.0031499928051955204 0.9367850585137004 -5.389882263159434e-16
3
i = 81, t = 800.0, V = -76.019772370556, K = 0.0029595976971071507
O    0.004602809991720895 0.004602809991729142 3.440875705797791e-17
H    0.9298018357283232 -0.002857745507732693 1.3153028334500476e-16
H    -0.0028577455077502334 0.9298018357283308 -5.404179033088238e-16
3
i = 82, t = 810.0, V = -76.018929045241, K = 0.0021255431277987635
O    0.005014617132658265 0.0050146171326666995 3.440875705797791e-17
H    0.923822253824213 -0.0034143763495151675 1.2581157537348282e-16
H    -0.0034143763495330056 0.9238222538242209 -5.447069342874653e-16
3
i = 83, t = 820.0, V = -76.018221116646, K = 0.0014268433996287382
O    0.0054020054148170805 0.005402005414825703 3.440875705797791e-17
H    0.9190972772736345 -0.004838035836894715 1.2009286740196086e-16
H    -0.004838035836912859 0.9190972772736429 -5.489959652661067e-16
3
i = 84, t = 830.0, V = -76.017795666032, K = 0.0010086417779052695
O    0.005752620260813547 0.005752620260822355 3.4228606497464934e-17
H    0.9158312512644792 -0.007136977011370738 1.1723351341619989e-16
H    -0.007136977011389194 0.915831251264488 -5.561443502305091e-16
3
i = 85, t = 840.0, V = -76.017767275061, K = 0.000983797997155599
O    0.006057282219115267 0.006057282219124267 3.458890761849088e-17
H    0.9141672385254433 -0.010308566128359063 1.1723351341619989e-16
H    -0.010308566128377838 0.9141672385254528 -5.718707971521945e-16
3
i = 86, t = 850.0, V = -76.018191619608, K = 0.0014069972593132303
O    0.006310637986307829 0.006310637986317013 3.5129359300029804e-17
H    0.914175830197475 -0.014338426569554192 1.1723351341619989e-16
H    -0.014338426569573303 0.9141758301974848 -5.904565980596408e-16
3
i = 87, t = 860.0, V = -76.019050420387, K = 0.0022600311432703912
O    0.006511497996537893 0.006511497996547263 3.566981098156872e-17
H    0.9158491455157908 -0.019199796752625772 1.1723351341619989e-16
H    -0.01919979675264522 0.9158491455158011 -6.090423989670871e-16
3
i = 88, t = 870.0, V = -76.020252647742, K = 0.0034529996121146246
O    0.0066628035829784564 0.006662803582988006 3.6390413223620615e-17
H    0.9191010271849274 -0.024853204292264133 1.2009286740196086e-16
H    -0.024853204292283926 0.9191010271849381 -6.333469078460554e-16
3
i = 89, t = 880.0, V = -76.021651907885, K = 0.004841358848462513
O    0.006771229713178727 0.006771229713188454 3.7291166026185485e-17
H    0.9237734492561485 -0.031246568483601436 1.2581157537348282e-16
H    -0.031246568483621562 0.9237734492561595 -6.633701246965456e-16
3
i = 90, t = 890.0, V = -76.023074939696, K = 0.006253889363658062
O    0.006846490588602751 0.006846490588612658 3.8372069389263325e-17
H    0.9296481548340405 -0.038315816468152075 1.3153028334500476e-16
H    -0.038315816468172566 0.9296481548340517 -6.962526955327968e-16
3
i = 91, t = 900.0, V = -76.024353274011, K = 0.007523845399773307
O    0.006900458043196321 0.006900458043206405 3.9633123312854135e-17
H    0.9364618087751762 -0.045986043133539004 1.372489913165267e-16
H    -0.04598604313355987 0.9364618087751875 -7.319946203548089e-16
3
i = 92, t = 910.0, V = -76.02535029899, K = 0.008515692538815107
O    0.006946217201972446 0.0069462172019827085 4.089417723644495e-17
H    0.9439226472500957 -0.05417317206605993 1.4296769928804867e-16
H    -0.054173172066081125 0.9439226472501071 -7.677365451768211e-16
3
i = 93, t = 920.0, V = -76.02597862485, K = 0.00914238387305339
O    0.006997170367598482 0.006997170367608923 4.215523116003576e-17
H    0.9517267480266864 -0.06278600270064061 1.5154576124533159e-16
H    -0.06278600270066215 0.9517267480266979 -8.063378239845941e-16
3
i = 94, t = 930.0, V = -76.026206205527, K = 0.009371589775508851
O    0.007066268413364634 0.0070662684133752564 4.32361345231136e-17
H    0.959572499403693 -0.07172847990524205 1.601238232026145e-16
H    -0.07172847990526392 0.9595724994037045 -8.420797488066063e-16
3
i = 95, t = 940.0, V = -76.026052674651, K = 0.00922224619345548
O    0.0071654111415120104 0.007165411141522796 4.449718844670442e-17
H    0.967172430426947 -0.08090200667019519 1.7156123914565838e-16
H    -0.0809020066702174 0.9671724304269586 -8.806810276143794e-16
3
i = 96, t = 950.0, V = -76.025579015121, K = 0.008754450665794514
O    0.007305024167562818 0.0073050241675737555 4.557809180978226e-17
H    0.9742621210235946 -0.09020763854044353 1.8585800907446321e-16
H    -0.09020763854046607 0.974262121023606 -9.192823064221525e-16
3
i = 97, t = 960.0, V = -76.024873994499, K = 0.008056079697335645
O    0.007493795585829781 0.007493795585840869 4.6478844612347124e-17
H    0.9806063395631804 -0.09954804152532286 1.972954250175071e-16
H    -0.0995480415253457 0.9806063395631919 -9.521648772584038e-16
3
i = 98, t = 970.0, V = -76.024040201918, K = 0.00722894066456389
O    0.007738542196663848 0.0077385421966750904 4.7379597414911994e-17
H    0.986002824303516 -0.1088291503001198 2.0873284096055098e-16
H    -0.10882915030014294 0.9860028243035274 -9.821880941088939e-16
3
i = 99, t = 980.0, V = -76.023181547496, K = 0.006376323423999507
O    0.008044170740458307 0.00804417074046969 4.8460500777989834e-17
H    0.9902842478541513 -0.11796151737473354 2.173109029178339e-16
H    -0.11796151737475692 0.9902842478541625 -1.0122113109593841e-15
3
i = 100, t = 990.0, V = -76.02239313608, K = 0.0055928806896240035
O    0.00841370160802653 0.008413701608038037 4.9541404141067674e-17
H    0.9933189151255064 -0.1268613873744882 2.2302961088935584e-16
H    -0.12686138737451186 0.9933189151255178 -1.0393751738241133e-15
3
i = 101, t = 1000.0, V = -76.021753713303, K = 0.004957054142770957
O    0.008848326754577198 0.008848326754588853 5.0622307504145514e-17
H    0.9950107003684336 -0.1354515532916881 2.344670268323997e-16
H    -0.13545155329171202 0.995010700368445 -1.0693983906746036e-15
